trunk/Version8/Distrib/Examples/Voltage_ride_through_IBR/Master_BESS.dss
Clear
New Circuit.tyn_substation


Redirect Vsource.dss
Redirect WireData.dss
Redirect LineSpacing.dss
Redirect LineCode.dss
Redirect LoadShape.dss
Redirect GrowthShape.dss
Redirect TCC_Curve.dss
Redirect Spectrum.dss
Redirect Line.dss
Redirect Load.dss
Redirect Transformer.dss
Redirect RegControl.dss
Redirect Capacitor.dss
Redirect CapControl.dss

Redirect StoDynamics.dss
MakeBusList
Redirect BusVoltageBases.dss  ! set voltage bases
Buscoords BusCoords.dss
GIScoords GISCoords.dss

!Redirect EnergyMeters.dss

!set loadmult=2.8

batchedit load..* vmaxpu=1.3
batchedit load..* vminpu=0.2

vsource.source.pu=1.01
set controlmode=off

solve

/*
!Dynamics case

set mode=dynamics stepsize=0.002s number=200 time=(12,0)
solve

vsource.source.pu=1.21
set number=800
solve

vsource.source.pu=1.01

! Use this trigger to restart the storage when needed (after entering in SafeMode).
!edit Storage.Storage1 SafeMode=No State=discharging

set number=200
solve
*/


/*
! QSTS simulation case
set mode=yearly stepsize=0.01s number=200 
solve

vsource.source.pu=1.12
set number=190
solve

vsource.source.pu=1.01

! Use this trigger to restart the storage when needed (after entering in SafeMode).
!edit Storage.Storage1 SafeMode=No State=discharging

set number=200
solve
*/

export monitors all



