trunk/Version8/Distrib/Examples/Voltage_ride_through_IBR/Line.dss
New "Line.tyn202_sw" phases=3 bus1=tyn202 bus2=tyn202_reg Switch=True
New "Line.tyn202_feeder" phases=3 bus1=tyn202_lsb.1.2.3 bus2=1147587.1.2.3 length=22.2504 units=m spacing=3PH_HORIZ_LG_1C_3 wires="AL_556_19STR AL_556_19STR AL_556_19STR ACSR_1/0_6/1" Seasons=1 Ratings=[400,] normamps=613 emergamps=613
New "Line.tyn202_1147588usd" phases=3 bus1=1147587.1.2.3 bus2=1147588.1.2.3 length=1.524 units=m spacing=3PH_HORIZ_LG_1C_3 wires="BUSBAR BUSBAR BUSBAR BUSBAR" Seasons=1 Ratings=[400,] normamps=2000 emergamps=2000
New "Line.tyn202_w_6_018_abc80949" phases=3 bus1=1147588.1.2.3 bus2=80949.1.2.3 length=20.4216 units=m spacing=3PH_HORIZ_LG_1C_3 wires="AL_556_19STR AL_556_19STR AL_556_19STR ACSR_1/0_6/1" Seasons=1 Ratings=[400,] normamps=613 emergamps=613
New "Line.tyn202_w_9_262_abc64916" phases=3 bus1=80949.1.2.3 bus2=64916.1.2.3 length=90.2208 units=m spacing=3PH_HORIZ_LG_1C_3 wires="AL_556_19STR AL_556_19STR AL_556_19STR ACSR_1/0_6/1" Seasons=1 Ratings=[400,] normamps=613 emergamps=613
New "Line.tyn202_w_9_479_abc1147658" phases=3 bus1=64916.1.2.3 bus2=1147658.1.2.3 length=32.004 units=m spacing=3PH_HORIZ_LG_1C_3 wires="AL_556_19STR AL_556_19STR AL_556_19STR ACSR_1/0_6/1" Seasons=1 Ratings=[400,] normamps=613 emergamps=613
New "Line.tyn202_w_9_259_abc1147659" phases=3 bus1=1147658.1.2.3 bus2=1147659.1.2.3 length=69.1896 units=m spacing=3PH_HORIZ_LG_1C_3 wires="AL_556_19STR AL_556_19STR AL_556_19STR ACSR_1/0_6/1" Seasons=1 Ratings=[400,] normamps=613 emergamps=613
New "Line.tyn202_109780usd" phases=3 bus1=1147659.1.2.3 bus2=109780.1.2.3 length=1.524 units=m spacing=3PH_HORIZ_LG_1C_3 wires="BUSBAR BUSBAR BUSBAR BUSBAR" Seasons=1 Ratings=[400,] normamps=2000 emergamps=2000
New "Line.tyn202_w_6_525_abc80939" phases=3 bus1=109780.1.2.3 bus2=80939.1.2.3 length=37.4904 units=m spacing=3PH_HORIZ_LG_1C_3 wires="AL_556_19STR AL_556_19STR AL_556_19STR ACSR_1/0_6/1" Seasons=1 Ratings=[400,] normamps=613 emergamps=613
New "Line.tyn202_w_9_101_abc75434" phases=3 bus1=80939.1.2.3 bus2=75434.1.2.3 length=98.1456 units=m spacing=3PH_HORIZ_LG_1C_3 wires="AL_336_19STR AL_336_19STR AL_336_19STR ACSR_1/0_6/1" Seasons=1 Ratings=[400,] normamps=448 emergamps=448
New "Line.tyn202_w_9_100_abc108913" phases=3 bus1=75434.1.2.3 bus2=108913.1.2.3 length=72.5424 units=m spacing=3PH_HORIZ_LG_1C_3 wires="AL_336_19STR AL_336_19STR AL_336_19STR ACSR_1/0_6/1" Seasons=1 Ratings=[400,] normamps=448 emergamps=448
New "Line.tyn202_64905usd" phases=3 bus1=108913.1.2.3 bus2=64905.1.2.3 length=1.524 units=m spacing=3PH_HORIZ_LG_1C_3 wires="BUSBAR BUSBAR BUSBAR BUSBAR" Seasons=1 Ratings=[400,] normamps=2000 emergamps=2000
New "Line.tyn202_w_9_395_a75432" phases=1 bus1=64905.1 bus2=75432.1 length=21.336 units=m spacing=1PH_1 wires="AL_1/0_7STR ACSR_1/0_6/1" Seasons=1 Ratings=[400,] normamps=216 emergamps=216
New "Line.tyn202_w_9_099_abc64904" phases=3 bus1=64905.1.2.3 bus2=64904.1.2.3 length=110.6424 units=m spacing=3PH_HORIZ_LG_1C_3 wires="AL_4/0_7STR AL_4/0_7STR AL_4/0_7STR ACSR_1/0_6/1" Seasons=1 Ratings=[400,] normamps=334 emergamps=334
New "Line.tyn202_102362fuse" phases=1 bus1=64904.1 bus2=102362.1 length=1.524 units=m linecode=basic1 Seasons=1 Ratings=[400,] Normamps=400 emergamps=600 
New "Line.tyn202_w_9_106_a86104" phases=1 bus1=102362.1 bus2=86104.1 length=23.1648 units=m spacing=1PH_1 wires="AL_#2_7STR ACSR_1/0_6/1" Seasons=1 Ratings=[400,] normamps=162 emergamps=162
New "Line.tyn202_w_9_252_a86105" phases=1 bus1=86104.1 bus2=86105.1 length=46.0248 units=m spacing=1PH_1 wires="AL_#2_7STR ACSR_1/0_6/1" Seasons=1 Ratings=[400,] normamps=162 emergamps=162
New "Line.tyn202_w_9_048_abc86108" phases=3 bus1=64904.1.2.3 bus2=86108.1.2.3 length=72.2376 units=m spacing=3PH_HORIZ_LG_1C_3 wires="AL_4/0_7STR AL_4/0_7STR AL_4/0_7STR ACSR_1/0_6/1" Seasons=1 Ratings=[400,] normamps=334 emergamps=334
New "Line.tyn202_w_8_141_abc16722" phases=3 bus1=86108.1.2.3 bus2=16722.1.2.3 length=88.392 units=m spacing=3PH_HORIZ_LG_1C_3 wires="AL_4/0_7STR AL_4/0_7STR AL_4/0_7STR ACSR_1/0_6/1" Seasons=1 Ratings=[400,] normamps=334 emergamps=334
New "Line.tyn202_w_8_140_abc16723" phases=3 bus1=16722.1.2.3 bus2=16723.1.2.3 length=45.1104 units=m spacing=3PH_HORIZ_LG_1C_3 wires="AL_4/0_7STR AL_4/0_7STR AL_4/0_7STR ACSR_1/0_6/1" Seasons=1 Ratings=[400,] normamps=334 emergamps=334
New "Line.tyn202_w_8_104_abc29631" phases=3 bus1=16723.1.2.3 bus2=29631.1.2.3 length=50.9016 units=m spacing=3PH_HORIZ_LG_1C_3 wires="AL_4/0_7STR AL_4/0_7STR AL_4/0_7STR ACSR_1/0_6/1" Seasons=1 Ratings=[400,] normamps=334 emergamps=334
New "Line.tyn202_w_8_484_abc29630" phases=3 bus1=29631.1.2.3 bus2=29630.1.2.3 length=56.0832 units=m spacing=3PH_HORIZ_LG_1C_3 wires="AL_4/0_7STR AL_4/0_7STR AL_4/0_7STR ACSR_1/0_6/1" Seasons=1 Ratings=[400,] normamps=334 emergamps=334
New "Line.tyn202_102363fuse" phases=1 bus1=29630.1 bus2=102363.1 length=1.524 units=m linecode=basic1 Seasons=1 Ratings=[400,] Normamps=400 emergamps=600 
New "Line.tyn202_w_8_485_a29632" phases=1 bus1=102363.1 bus2=29632.1 length=28.3464 units=m spacing=1PH_1 wires="ACSR_1/0_6/1 ACSR_1/0_6/1" Seasons=1 Ratings=[400,] normamps=255 emergamps=255
New "Line.tyn202_w_9_124_a53883" phases=1 bus1=29632.1 bus2=53883.1 length=84.7344 units=m spacing=1PH_1 wires="CU_#6_1STR ACSR_1/0_6/1" Seasons=1 Ratings=[400,] normamps=112 emergamps=112
New "Line.tyn202_w_9_125_a53886" phases=1 bus1=53883.1 bus2=53886.1 length=78.3336 units=m spacing=1PH_1 wires="CU_#6_1STR ACSR_1/0_6/1" Seasons=1 Ratings=[400,] normamps=112 emergamps=112
New "Line.tyn202_w_9_126_a53887" phases=1 bus1=53886.1 bus2=53887.1 length=76.2 units=m spacing=1PH_1 wires="CU_#6_1STR ACSR_1/0_6/1" Seasons=1 Ratings=[400,] normamps=112 emergamps=112
New "Line.tyn202_w_8_103_abc53884" phases=3 bus1=29630.1.2.3 bus2=53884.1.2.3 length=70.104 units=m spacing=3PH_HORIZ_LG_1C_3 wires="AL_4/0_7STR AL_4/0_7STR AL_4/0_7STR ACSR_1/0_6/1" Seasons=1 Ratings=[400,] normamps=334 emergamps=334
New "Line.tyn202_w_8_102_abc53881" phases=3 bus1=53884.1.2.3 bus2=53881.1.2.3 length=106.68 units=m spacing=3PH_HORIZ_LG_1C_3 wires="AL_4/0_7STR AL_4/0_7STR AL_4/0_7STR ACSR_1/0_6/1" Seasons=1 Ratings=[400,] normamps=334 emergamps=334
New "Line.tyn202_w_8_152_abc53892" phases=3 bus1=53881.1.2.3 bus2=53892.1.2.3 length=25.908 units=m spacing=3PH_HORIZ_LG_1C_3 wires="ACSR_1/0_6/1 ACSR_1/0_6/1 ACSR_1/0_6/1 ACSR_1/0_6/1" Seasons=1 Ratings=[400,] normamps=255 emergamps=255
New "Line.tyn202_105572fuse" phases=3 bus1=53892.1.2.3 bus2=105572.1.2.3 length=1.524 units=m spacing=3PH_HORIZ_LG_1C_3 wires="BUSBAR BUSBAR BUSBAR BUSBAR" Seasons=1 Ratings=[400,] normamps=2000 emergamps=2000
New "Line.tyn202_w_8p039_abc1169726" phases=3 bus1=105572.1.2.3 bus2=1169726.1.2.3 length=152.4 units=m linecode=ug_1/0al_3 Seasons=1 Ratings=[400,] normamps=150 emergamps=600
New "Line.tyn202_53900elb" phases=3 bus1=1169726.1.2.3 bus2=53900.1.2.3 length=1.524 units=m linecode=basic3 Seasons=1 Ratings=[400,] Normamps=400 emergamps=600 
New "Line.tyn202_w_8_101_abc53820" phases=3 bus1=53881.1.2.3 bus2=53820.1.2.3 length=80.772 units=m spacing=3PH_HORIZ_LG_1C_3 wires="AL_4/0_7STR AL_4/0_7STR AL_4/0_7STR ACSR_1/0_6/1" Seasons=1 Ratings=[400,] normamps=334 emergamps=334
New "Line.tyn202_w_8_100_abc53819" phases=3 bus1=53820.1.2.3 bus2=53819.1.2.3 length=112.4712 units=m spacing=3PH_HORIZ_LG_1C_3 wires="AL_4/0_7STR AL_4/0_7STR AL_4/0_7STR ACSR_1/0_6/1" Seasons=1 Ratings=[400,] normamps=334 emergamps=334
New "Line.tyn202_w_8_422_abc1147865" phases=3 bus1=53819.1.2.3 bus2=1147865.1.2.3 length=25.908 units=m spacing=3PH_HORIZ_LG_1C_3 wires="AL_4/0_7STR AL_4/0_7STR AL_4/0_7STR ACSR_1/0_6/1" Seasons=1 Ratings=[400,] normamps=334 emergamps=334
New "Line.tyn202_w_8_108_abc53821" phases=3 bus1=53819.1.2.3 bus2=53821.1.2.3 length=15.5448 units=m spacing=3PH_HORIZ_LG_1C_3 wires="AL_4/0_7STR AL_4/0_7STR AL_4/0_7STR ACSR_1/0_6/1" Seasons=1 Ratings=[400,] normamps=334 emergamps=334
New "Line.tyn202_105561fuse" phases=3 bus1=53821.1.2.3 bus2=105561.1.2.3 length=1.524 units=m spacing=3PH_HORIZ_LG_1C_3 wires="BUSBAR BUSBAR BUSBAR BUSBAR" Seasons=1 Ratings=[400,] normamps=2000 emergamps=2000
New "Line.tyn202_w_8_109_abc53818" phases=3 bus1=105561.1.2.3 bus2=53818.1.2.3 length=76.5048 units=m spacing=3PH_HORIZ_LG_1C_3 wires="CU_#6_1STR CU_#6_1STR CU_#6_1STR ACSR_1/0_6/1" Seasons=1 Ratings=[400,] normamps=112 emergamps=112
New "Line.tyn202_w_8_110_abc53810" phases=3 bus1=53818.1.2.3 bus2=53810.1.2.3 length=74.9808 units=m spacing=3PH_HORIZ_LG_1C_3 wires="CU_#6_1STR CU_#6_1STR CU_#6_1STR ACSR_1/0_6/1" Seasons=1 Ratings=[400,] normamps=112 emergamps=112
New "Line.tyn202_w_8_474_abc1077872" phases=3 bus1=53810.1.2.3 bus2=1077872.1.2.3 length=42.3672 units=m spacing=3PH_HORIZ_LG_1C_3 wires="ACSR_1/0_6/1 ACSR_1/0_6/1 ACSR_1/0_6/1 ACSR_1/0_6/1" Seasons=1 Ratings=[400,] normamps=255 emergamps=255
New "Line.tyn202_w_8_494_abc1163166" phases=3 bus1=1077872.1.2.3 bus2=1163166.1.2.3 length=42.3672 units=m spacing=3PH_HORIZ_LG_1C_3 wires="ACSR_1/0_6/1 ACSR_1/0_6/1 ACSR_1/0_6/1 ACSR_1/0_6/1" Seasons=1 Ratings=[400,] normamps=255 emergamps=255
New "Line.tyn202_w_8_275_abc53830" phases=3 bus1=1163166.1.2.3 bus2=53830.1.2.3 length=34.7472 units=m spacing=3PH_HORIZ_LG_1C_3 wires="ACSR_1/0_6/1 ACSR_1/0_6/1 ACSR_1/0_6/1 ACSR_1/0_6/1" Seasons=1 Ratings=[400,] normamps=255 emergamps=255
New "Line.tyn202_w_8_434_abc69899" phases=3 bus1=53830.1.2.3 bus2=69899.1.2.3 length=75.5904 units=m spacing=3PH_HORIZ_LG_1C_3 wires="AL_#2_7STR AL_#2_7STR AL_#2_7STR ACSR_1/0_6/1" Seasons=1 Ratings=[400,] normamps=162 emergamps=162
New "Line.tyn202_w_8_435_abc69898" phases=3 bus1=69899.1.2.3 bus2=69898.1.2.3 length=53.0352 units=m spacing=3PH_HORIZ_LG_1C_3 wires="AL_#2_7STR AL_#2_7STR AL_#2_7STR ACSR_1/0_6/1" Seasons=1 Ratings=[400,] normamps=162 emergamps=162
New "Line.tyn202_w_8_250_abc69892" phases=3 bus1=69898.1.2.3 bus2=69892.1.2.3 length=10.9728 units=m spacing=3PH_HORIZ_LG_1C_3 wires="AL_#2_7STR AL_#2_7STR AL_#2_7STR ACSR_1/0_6/1" Seasons=1 Ratings=[400,] normamps=162 emergamps=162
New "Line.tyn202_w_8_249_abc69891" phases=3 bus1=69892.1.2.3 bus2=69891.1.2.3 length=69.4944 units=m spacing=3PH_HORIZ_LG_1C_3 wires="AL_#2_7STR AL_#2_7STR AL_#2_7STR ACSR_1/0_6/1" Seasons=1 Ratings=[400,] normamps=162 emergamps=162
New "Line.tyn202_w_8_270_abc1151753" phases=3 bus1=69891.1.2.3 bus2=1151753.1.2.3 length=12.8016 units=m spacing=3PH_HORIZ_LG_1C_3 wires="AL_#2_7STR AL_#2_7STR AL_#2_7STR ACSR_1/0_6/1" Seasons=1 Ratings=[400,] normamps=162 emergamps=162
New "Line.tyn202_w_8_276_ab53829" phases=2 bus1=53830.1.2 bus2=53829.1.2 length=37.7952 units=m spacing=2PH_HORIZ_LG_1C_2 wires="AL_#2_7STR AL_#2_7STR ACSR_1/0_6/1" Seasons=1 Ratings=[400,] normamps=162 emergamps=162
New "Line.tyn202_1077874fuse" phases=1 bus1=1077872.3 bus2=1077874.3 length=1.524 units=m spacing=1PH_1 wires="BUSBAR BUSBAR" Seasons=1 Ratings=[400,] normamps=2000 emergamps=2000
New "Line.tyn202_w_8_111_c1077873" phases=1 bus1=1077874.3 bus2=1077873.3 length=28.3464 units=m spacing=1PH_1 wires="CU_#6_1STR ACSR_1/0_6/1" Seasons=1 Ratings=[400,] normamps=112 emergamps=112
New "Line.tyn202_w_8_112_c53807" phases=1 bus1=1077873.3 bus2=53807.3 length=76.2 units=m spacing=1PH_1 wires="CU_#6_1STR ACSR_1/0_6/1" Seasons=1 Ratings=[400,] normamps=112 emergamps=112
New "Line.tyn202_w_8_113_c53806" phases=1 bus1=53807.3 bus2=53806.3 length=89.3064 units=m spacing=1PH_1 wires="CU_#6_1STR ACSR_1/0_6/1" Seasons=1 Ratings=[400,] normamps=112 emergamps=112
New "Line.tyn202_w_8_379_c53808" phases=1 bus1=53806.3 bus2=53808.3 length=60.96 units=m spacing=1PH_1 wires="CU_#6_1STR ACSR_1/0_6/1" Seasons=1 Ratings=[400,] normamps=112 emergamps=112
New "Line.tyn202_w_8_431_c1149757" phases=1 bus1=53808.3 bus2=1149757.3 length=28.6512 units=m spacing=1PH_1 wires="AL_1/0_7STR ACSR_1/0_6/1" Seasons=1 Ratings=[400,] normamps=216 emergamps=216
New "Line.tyn202_w_8_115_c85915" phases=1 bus1=53806.3 bus2=85915.3 length=67.6656 units=m spacing=1PH_1 wires="CU_#6_1STR ACSR_1/0_6/1" Seasons=1 Ratings=[400,] normamps=112 emergamps=112
New "Line.tyn202_w_8_201_c1143216" phases=1 bus1=85915.3 bus2=1143216.3 length=50.9016 units=m spacing=1PH_1 wires="CU_#6_1STR ACSR_1/0_6/1" Seasons=1 Ratings=[400,] normamps=112 emergamps=112
New "Line.tyn202_w_8_116_c85916" phases=1 bus1=85915.3 bus2=85916.3 length=44.8056 units=m spacing=1PH_1 wires="AL_#2_7STR ACSR_1/0_6/1" Seasons=1 Ratings=[400,] normamps=162 emergamps=162
New "Line.tyn202_w_8_157_abc53804" phases=3 bus1=53810.1.2.3 bus2=53804.1.2.3 length=89.0016 units=m spacing=3PH_HORIZ_LG_1C_3 wires="CU_#6_1STR CU_#6_1STR CU_#6_1STR ACSR_1/0_6/1" Seasons=1 Ratings=[400,] normamps=112 emergamps=112
New "Line.tyn202_w_8_061_abc1147959" phases=3 bus1=53804.1.2.3 bus2=1147959.1.2.3 length=59.436 units=m spacing=3PH_HORIZ_LG_1C_3 wires="CU_#6_1STR CU_#6_1STR CU_#6_1STR ACSR_1/0_6/1" Seasons=1 Ratings=[400,] normamps=112 emergamps=112
New "Line.tyn202_1147960fuse" phases=3 bus1=1147959.1.2.3 bus2=1147960.1.2.3 length=1.524 units=m spacing=3PH_HORIZ_LG_1C_3 wires="BUSBAR BUSBAR BUSBAR BUSBAR" Seasons=1 Ratings=[400,] normamps=2000 emergamps=2000
New "Line.tyn202_w_8p036_abc1169572" phases=3 bus1=1147960.1.2.3 bus2=1169572.1.2.3 length=75.5904 units=m linecode=ug_1/0al_3 Seasons=1 Ratings=[400,] normamps=150 emergamps=600
New "Line.tyn202_1147961elb" phases=3 bus1=1169572.1.2.3 bus2=1147961.1.2.3 length=1.524 units=m linecode=basic3 Seasons=1 Ratings=[400,] Normamps=400 emergamps=600 
New "Line.tyn202_w_8_099_abc71114" phases=3 bus1=53819.1.2.3 bus2=71114.1.2.3 length=99.3648 units=m spacing=3PH_HORIZ_LG_1C_3 wires="AL_4/0_7STR AL_4/0_7STR AL_4/0_7STR ACSR_1/0_6/1" Seasons=1 Ratings=[400,] normamps=334 emergamps=334
New "Line.tyn202_w_8_098_abc69904" phases=3 bus1=71114.1.2.3 bus2=69904.1.2.3 length=87.4776 units=m spacing=3PH_HORIZ_LG_1C_3 wires="AL_4/0_7STR AL_4/0_7STR AL_4/0_7STR ACSR_1/0_6/1" Seasons=1 Ratings=[400,] normamps=334 emergamps=334
New "Line.tyn202_w_8_097_abc69900" phases=3 bus1=69904.1.2.3 bus2=69900.1.2.3 length=86.868 units=m spacing=3PH_HORIZ_LG_1C_3 wires="AL_556_19STR AL_556_19STR AL_556_19STR ACSR_1/0_6/1" Seasons=1 Ratings=[400,] normamps=613 emergamps=613
New "Line.tyn202_1124205usd" phases=3 bus1=69900.1.2.3 bus2=1124205.1.2.3 length=1.524 units=m spacing=3PH_HORIZ_LG_1C_3 wires="BUSBAR BUSBAR BUSBAR BUSBAR" Seasons=1 Ratings=[400,] normamps=2000 emergamps=2000
New "Line.tyn202_w_8_096_abc69893" phases=3 bus1=1124205.1.2.3 bus2=69893.1.2.3 length=98.4504 units=m spacing=3PH_HORIZ_LG_1C_3 wires="AL_556_19STR AL_556_19STR AL_556_19STR ACSR_1/0_6/1" Seasons=1 Ratings=[400,] normamps=613 emergamps=613
New "Line.tyn202_108072fuse" phases=3 bus1=69893.1.2.3 bus2=108072.1.2.3 length=1.524 units=m linecode=basic3 Seasons=1 Ratings=[400,] Normamps=400 emergamps=600 
New "Line.tyn202_w_8_303_abc69895" phases=3 bus1=108072.1.2.3 bus2=69895.1.2.3 length=24.9936 units=m spacing=3PH_HORIZ_LG_1C_3 wires="AL_4/0_7STR AL_4/0_7STR AL_4/0_7STR ACSR_1/0_6/1" Seasons=1 Ratings=[400,] normamps=334 emergamps=334
New "Line.tyn202_108075fuse" phases=3 bus1=69895.1.2.3 bus2=108075.1.2.3 length=1.524 units=m spacing=3PH_HORIZ_LG_1C_3 wires="BUSBAR BUSBAR BUSBAR BUSBAR" Seasons=1 Ratings=[400,] normamps=2000 emergamps=2000
New "Line.tyn202_w_8p030_abc1169739" phases=3 bus1=108075.1.2.3 bus2=1169739.1.2.3 length=39.3192 units=m linecode=ug_1/0al_3 Seasons=1 Ratings=[400,] normamps=150 emergamps=600
New "Line.tyn202_69902elb" phases=3 bus1=1169739.1.2.3 bus2=69902.1.2.3 length=1.524 units=m linecode=basic3 Seasons=1 Ratings=[400,] Normamps=400 emergamps=600 
New "Line.tyn202_1124196_abc1124196" phases=3 bus1=69893.1.2.3 bus2=1124196.1.2.3 length=87.4776 units=m spacing=3PH_HORIZ_LG_1C_3 wires="AL_556_19STR AL_556_19STR AL_556_19STR ACSR_1/0_6/1" Seasons=1 Ratings=[400,] normamps=613 emergamps=613
New "Line.tyn202_w_8_504_abc1147849" phases=3 bus1=1124196.1.2.3 bus2=1147849.1.2.3 length=30.48 units=m spacing=3PH_HORIZ_LG_1C_3 wires="AL_1033_37STR AL_1033_37STR AL_1033_37STR ACSR_1/0_6/1" Seasons=1 Ratings=[400,] normamps=898 emergamps=898
New "Line.tyn202_w_8_501_abc1124193" phases=3 bus1=1124196.1.2.3 bus2=1124193.1.2.3 length=32.6136 units=m spacing=3PH_HORIZ_LG_1C_3 wires="AL_556_19STR AL_556_19STR AL_556_19STR ACSR_1/0_6/1" Seasons=1 Ratings=[400,] normamps=613 emergamps=613
New "Line.tyn202_x_2_350_a1124195" phases=1 bus1=1124193.1 bus2=1124195.1 length=28.956 units=m spacing=1PH_1 wires="AL_#2_7STR ACSR_1/0_6/1" Seasons=1 Ratings=[400,] normamps=162 emergamps=162
New "Line.tyn202_x_2_079_abc75650" phases=3 bus1=1124193.1.2.3 bus2=75650.1.2.3 length=60.96 units=m spacing=3PH_HORIZ_LG_1C_3 wires="AL_4/0_7STR AL_4/0_7STR AL_4/0_7STR ACSR_1/0_6/1" Seasons=1 Ratings=[400,] normamps=334 emergamps=334
New "Line.tyn202_x_2_078_abc75646" phases=3 bus1=75650.1.2.3 bus2=75646.1.2.3 length=91.44 units=m spacing=3PH_HORIZ_LG_1C_3 wires="AL_4/0_7STR AL_4/0_7STR AL_4/0_7STR ACSR_1/0_6/1" Seasons=1 Ratings=[400,] normamps=334 emergamps=334
New "Line.tyn202_108954fuse" phases=3 bus1=75646.1.2.3 bus2=108954.1.2.3 length=1.524 units=m linecode=basic3 Seasons=1 Ratings=[400,] Normamps=400 emergamps=600 
New "Line.tyn202_x_2_083_abc75652" phases=3 bus1=108954.1.2.3 bus2=75652.1.2.3 length=20.7264 units=m spacing=3PH_HORIZ_LG_1C_3 wires="AL_1/0_7STR AL_1/0_7STR AL_1/0_7STR ACSR_1/0_6/1" Seasons=1 Ratings=[400,] normamps=216 emergamps=216
New "Line.tyn202_x_2_411_abc41203" phases=3 bus1=75652.1.2.3 bus2=41203.1.2.3 length=55.1688 units=m spacing=3PH_HORIZ_LG_1C_3 wires="AL_1/0_7STR AL_1/0_7STR AL_1/0_7STR ACSR_1/0_6/1" Seasons=1 Ratings=[400,] normamps=216 emergamps=216
New "Line.tyn202_x_2_085_c41204" phases=1 bus1=41203.3 bus2=41204.3 length=22.86 units=m spacing=1PH_1 wires="AL_1/0_7STR ACSR_1/0_6/1" Seasons=1 Ratings=[400,] normamps=216 emergamps=216
New "Line.tyn202_x_2_084_c1151752" phases=1 bus1=41204.3 bus2=1151752.3 length=33.2232 units=m spacing=1PH_1 wires="AL_#2_7STR ACSR_1/0_6/1" Seasons=1 Ratings=[400,] normamps=162 emergamps=162
New "Line.tyn202_1189391fuse" phases=1 bus1=41204.3 bus2=1189391.3 length=1.524 units=m spacing=1PH_1 wires="BUSBAR BUSBAR" Seasons=1 Ratings=[400,] normamps=2000 emergamps=2000
New "Line.tyn202_x_2p036_c1189392" phases=1 bus1=1189391.3 bus2=1189392.3 length=70.4088 units=m linecode=ug_1/0al_1 Seasons=1 Ratings=[400,] normamps=150 emergamps=600
New "Line.tyn202_1189393elb" phases=1 bus1=1189392.3 bus2=1189393.3 length=1.524 units=m linecode=basic1 Seasons=1 Ratings=[400,] Normamps=400 emergamps=600 
New "Line.tyn202_1189397elb" phases=1 bus1=1189393.3 bus2=1189397.3 length=1.524 units=m linecode=basic1 Seasons=1 Ratings=[400,] Normamps=400 emergamps=600 
New "Line.tyn202_x_2p037_c1189395" phases=1 bus1=1189397.3 bus2=1189395.3 length=38.4048 units=m linecode=ug_1/0al_1 Seasons=1 Ratings=[400,] normamps=150 emergamps=600
New "Line.tyn202_1189396elb" phases=1 bus1=1189395.3 bus2=1189396.3 length=1.524 units=m linecode=basic1 Seasons=1 Ratings=[400,] Normamps=400 emergamps=600 
New "Line.tyn202_x_2_077_abc29637" phases=3 bus1=75646.1.2.3 bus2=29637.1.2.3 length=80.772 units=m spacing=3PH_HORIZ_LG_1C_3 wires="AL_4/0_7STR AL_4/0_7STR AL_4/0_7STR ACSR_1/0_6/1" Seasons=1 Ratings=[400,] normamps=334 emergamps=334
New "Line.tyn202_x_2_267_abc29636" phases=3 bus1=29637.1.2.3 bus2=29636.1.2.3 length=39.9288 units=m spacing=3PH_HORIZ_LG_1C_3 wires="AL_4/0_7STR AL_4/0_7STR AL_4/0_7STR ACSR_1/0_6/1" Seasons=1 Ratings=[400,] normamps=334 emergamps=334
New "Line.tyn202_x_2_076_abc29641" phases=3 bus1=29636.1.2.3 bus2=29641.1.2.3 length=60.6552 units=m spacing=3PH_HORIZ_LG_1C_3 wires="AL_4/0_7STR AL_4/0_7STR AL_4/0_7STR ACSR_1/0_6/1" Seasons=1 Ratings=[400,] normamps=334 emergamps=334
New "Line.tyn202_x_2_075_abc29647" phases=3 bus1=29641.1.2.3 bus2=29647.1.2.3 length=81.9912 units=m spacing=3PH_HORIZ_LG_1C_3 wires="AL_4/0_7STR AL_4/0_7STR AL_4/0_7STR ACSR_1/0_6/1" Seasons=1 Ratings=[400,] normamps=334 emergamps=334
New "Line.tyn202_x_2_404_ac75627" phases=2 bus1=29647.1.3 bus2=75627.1.3 length=49.0728 units=m spacing=2PH_HORIZ_LG_1C_2 wires="AL_#2_7STR AL_#2_7STR ACSR_1/0_6/1" Seasons=1 Ratings=[400,] normamps=162 emergamps=162
New "Line.tyn202_102371fuse" phases=2 bus1=75627.1.3 bus2=102371.1.3 length=1.524 units=m spacing=2PH_HORIZ_LG_1C_2 wires="BUSBAR BUSBAR BUSBAR" Seasons=1 Ratings=[400,] normamps=2000 emergamps=2000
New "Line.tyn202_x_2_016_ac29657" phases=2 bus1=102371.1.3 bus2=29657.1.3 length=29.2608 units=m spacing=2PH_HORIZ_LG_1C_2 wires="CU_#6_1STR CU_#6_1STR ACSR_1/0_6/1" Seasons=1 Ratings=[400,] normamps=112 emergamps=112
New "Line.tyn202_x_2_017_ac29658" phases=2 bus1=29657.1.3 bus2=29658.1.3 length=47.5488 units=m spacing=2PH_HORIZ_LG_1C_2 wires="CU_#6_1STR CU_#6_1STR ACSR_1/0_6/1" Seasons=1 Ratings=[400,] normamps=112 emergamps=112
New "Line.tyn202_x_2_018_ac64745" phases=2 bus1=29658.1.3 bus2=64745.1.3 length=45.4152 units=m spacing=2PH_HORIZ_LG_1C_2 wires="CU_#6_1STR CU_#6_1STR ACSR_1/0_6/1" Seasons=1 Ratings=[400,] normamps=112 emergamps=112
New "Line.tyn202_x_2_019_ac41220" phases=2 bus1=64745.1.3 bus2=41220.1.3 length=45.4152 units=m spacing=2PH_HORIZ_LG_1C_2 wires="CU_#6_1STR CU_#6_1STR ACSR_1/0_6/1" Seasons=1 Ratings=[400,] normamps=112 emergamps=112
New "Line.tyn202_x_2_020_a41221" phases=1 bus1=41220.1 bus2=41221.1 length=48.768 units=m spacing=1PH_1 wires="CU_#6_1STR ACSR_1/0_6/1" Seasons=1 Ratings=[400,] normamps=112 emergamps=112
New "Line.tyn202_x_2_021_a64748" phases=1 bus1=41221.1 bus2=64748.1 length=43.5864 units=m spacing=1PH_1 wires="CU_#6_1STR ACSR_1/0_6/1" Seasons=1 Ratings=[400,] normamps=112 emergamps=112
New "Line.tyn202_x_2_022_a64749" phases=1 bus1=64748.1 bus2=64749.1 length=46.9392 units=m spacing=1PH_1 wires="CU_#6_1STR ACSR_1/0_6/1" Seasons=1 Ratings=[400,] normamps=112 emergamps=112
New "Line.tyn202_x_2_023_a41222" phases=1 bus1=64749.1 bus2=41222.1 length=52.7304 units=m spacing=1PH_1 wires="CU_#6_1STR ACSR_1/0_6/1" Seasons=1 Ratings=[400,] normamps=112 emergamps=112
New "Line.tyn202_1143227fuse" phases=1 bus1=41222.1 bus2=1143227.1 length=1.524 units=m spacing=1PH_1 wires="BUSBAR BUSBAR" Seasons=1 Ratings=[400,] normamps=2000 emergamps=2000
New "Line.tyn202_x_2_024_a1143226" phases=1 bus1=1143227.1 bus2=1143226.1 length=55.1688 units=m spacing=1PH_1 wires="CU_#6_1STR ACSR_1/0_6/1" Seasons=1 Ratings=[400,] normamps=112 emergamps=112
New "Line.tyn202_x_2_025_a53780" phases=1 bus1=1143226.1 bus2=53780.1 length=70.7136 units=m spacing=1PH_1 wires="CU_#6_1STR ACSR_1/0_6/1" Seasons=1 Ratings=[400,] normamps=112 emergamps=112
New "Line.tyn202_x_2_060_a75465" phases=1 bus1=53780.1 bus2=75465.1 length=43.8912 units=m spacing=1PH_1 wires="CU_#6_1STR ACSR_1/0_6/1" Seasons=1 Ratings=[400,] normamps=112 emergamps=112
New "Line.tyn202_x_2_062_a75450" phases=1 bus1=75465.1 bus2=75450.1 length=42.0624 units=m spacing=1PH_1 wires="CU_#6_1STR ACSR_1/0_6/1" Seasons=1 Ratings=[400,] normamps=112 emergamps=112
New "Line.tyn202_x_2_088_a2647" phases=1 bus1=75450.1 bus2=2647.1 length=56.9976 units=m spacing=1PH_1 wires="CU_#6_1STR ACSR_1/0_6/1" Seasons=1 Ratings=[400,] normamps=112 emergamps=112
New "Line.tyn202_x_2_089_a2648" phases=1 bus1=2647.1 bus2=2648.1 length=54.864 units=m spacing=1PH_1 wires="CU_#6_1STR ACSR_1/0_6/1" Seasons=1 Ratings=[400,] normamps=112 emergamps=112
New "Line.tyn202_x_2_090_a2660" phases=1 bus1=2648.1 bus2=2660.1 length=47.5488 units=m spacing=1PH_1 wires="CU_#6_1STR ACSR_1/0_6/1" Seasons=1 Ratings=[400,] normamps=112 emergamps=112
New "Line.tyn202_x_2_091_a2634" phases=1 bus1=2660.1 bus2=2634.1 length=51.816 units=m spacing=1PH_1 wires="CU_#6_1STR ACSR_1/0_6/1" Seasons=1 Ratings=[400,] normamps=112 emergamps=112
New "Line.tyn202_x_2_092_a2621" phases=1 bus1=2634.1 bus2=2621.1 length=48.768 units=m spacing=1PH_1 wires="CU_#6_1STR ACSR_1/0_6/1" Seasons=1 Ratings=[400,] normamps=112 emergamps=112
New "Line.tyn202_x_2_095_a2622" phases=1 bus1=2621.1 bus2=2622.1 length=54.864 units=m spacing=1PH_1 wires="CU_#6_1STR ACSR_1/0_6/1" Seasons=1 Ratings=[400,] normamps=112 emergamps=112
New "Line.tyn202_x_2_096_a75456" phases=1 bus1=2622.1 bus2=75456.1 length=45.4152 units=m spacing=1PH_1 wires="CU_#6_1STR ACSR_1/0_6/1" Seasons=1 Ratings=[400,] normamps=112 emergamps=112
New "Line.tyn202_x_2_097_a75463" phases=1 bus1=75456.1 bus2=75463.1 length=46.3296 units=m spacing=1PH_1 wires="CU_#6_1STR ACSR_1/0_6/1" Seasons=1 Ratings=[400,] normamps=112 emergamps=112
New "Line.tyn202_x_2_098_a75473" phases=1 bus1=75463.1 bus2=75473.1 length=44.8056 units=m spacing=1PH_1 wires="CU_#6_1STR ACSR_1/0_6/1" Seasons=1 Ratings=[400,] normamps=112 emergamps=112
New "Line.tyn202_x_2_099_a75481" phases=1 bus1=75473.1 bus2=75481.1 length=46.3296 units=m spacing=1PH_1 wires="CU_#6_1STR ACSR_1/0_6/1" Seasons=1 Ratings=[400,] normamps=112 emergamps=112
New "Line.tyn202_x_2_100_a75487" phases=1 bus1=75481.1 bus2=75487.1 length=46.3296 units=m spacing=1PH_1 wires="CU_#6_1STR ACSR_1/0_6/1" Seasons=1 Ratings=[400,] normamps=112 emergamps=112
New "Line.tyn202_x_2_113_a75493" phases=1 bus1=75487.1 bus2=75493.1 length=45.72 units=m spacing=1PH_1 wires="CU_#6_1STR ACSR_1/0_6/1" Seasons=1 Ratings=[400,] normamps=112 emergamps=112
New "Line.tyn202_1143225fuse" phases=2 bus1=41220.1.3 bus2=1143225.1.3 length=1.524 units=m spacing=2PH_HORIZ_LG_1C_2 wires="BUSBAR BUSBAR BUSBAR" Seasons=1 Ratings=[400,] normamps=2000 emergamps=2000
New "Line.tyn202_x_2_231_ac1143224" phases=2 bus1=1143225.1.3 bus2=1143224.1.3 length=16.4592 units=m spacing=2PH_HORIZ_LG_1C_2 wires="AL_1/0_7STR AL_1/0_7STR ACSR_1/0_6/1" Seasons=1 Ratings=[400,] normamps=216 emergamps=216
New "Line.tyn202_x_2_232_ac64747" phases=2 bus1=1143224.1.3 bus2=64747.1.3 length=73.4568 units=m spacing=2PH_HORIZ_LG_1C_2 wires="AL_1/0_7STR AL_1/0_7STR ACSR_1/0_6/1" Seasons=1 Ratings=[400,] normamps=216 emergamps=216
New "Line.tyn202_x_2_074_abc29655" phases=3 bus1=29647.1.2.3 bus2=29655.1.2.3 length=97.536 units=m spacing=3PH_HORIZ_LG_1C_3 wires="AL_4/0_7STR AL_4/0_7STR AL_4/0_7STR ACSR_1/0_6/1" Seasons=1 Ratings=[400,] normamps=334 emergamps=334
New "Line.tyn202_x_2_292_a64758" phases=1 bus1=29655.1 bus2=64758.1 length=19.2024 units=m spacing=1PH_1 wires="AL_#2_7STR ACSR_1/0_6/1" Seasons=1 Ratings=[400,] normamps=162 emergamps=162
New "Line.tyn202_108944fuse" phases=1 bus1=64758.1 bus2=108944.1 length=1.524 units=m spacing=1PH_1 wires="BUSBAR BUSBAR" Seasons=1 Ratings=[400,] normamps=2000 emergamps=2000
New "Line.tyn202_x_2_291_a75622" phases=1 bus1=108944.1 bus2=75622.1 length=64.3128 units=m spacing=1PH_1 wires="AL_#2_7STR ACSR_1/0_6/1" Seasons=1 Ratings=[400,] normamps=162 emergamps=162
New "Line.tyn202_107262usd" phases=3 bus1=29655.1.2.3 bus2=107262.1.2.3 length=1.524 units=m spacing=3PH_HORIZ_LG_1C_3 wires="BUSBAR BUSBAR BUSBAR BUSBAR" Seasons=1 Ratings=[400,] normamps=2000 emergamps=2000
New "Line.tyn202_x_2_073_abc64743" phases=3 bus1=107262.1.2.3 bus2=64743.1.2.3 length=89.916 units=m spacing=3PH_HORIZ_LG_1C_3 wires="AL_4/0_7STR AL_4/0_7STR AL_4/0_7STR ACSR_1/0_6/1" Seasons=1 Ratings=[400,] normamps=334 emergamps=334
New "Line.tyn202_x_2_072_abc64744" phases=3 bus1=64743.1.2.3 bus2=64744.1.2.3 length=99.6696 units=m spacing=3PH_HORIZ_LG_1C_3 wires="AL_4/0_7STR AL_4/0_7STR AL_4/0_7STR ACSR_1/0_6/1" Seasons=1 Ratings=[400,] normamps=334 emergamps=334
New "Line.tyn202_x_2_399_abc64762" phases=3 bus1=64744.1.2.3 bus2=64762.1.2.3 length=57.3024 units=m spacing=3PH_HORIZ_LG_1C_3 wires="AL_4/0_7STR AL_4/0_7STR AL_4/0_7STR ACSR_1/0_6/1" Seasons=1 Ratings=[400,] normamps=334 emergamps=334
New "Line.tyn202_x_2_071_abc53788" phases=3 bus1=64762.1.2.3 bus2=53788.1.2.3 length=41.4528 units=m spacing=3PH_HORIZ_LG_1C_3 wires="AL_4/0_7STR AL_4/0_7STR AL_4/0_7STR ACSR_1/0_6/1" Seasons=1 Ratings=[400,] normamps=334 emergamps=334
New "Line.tyn202_x_2_401_abc53789" phases=3 bus1=53788.1.2.3 bus2=53789.1.2.3 length=48.1584 units=m spacing=3PH_HORIZ_LG_1C_3 wires="AL_4/0_7STR AL_4/0_7STR AL_4/0_7STR ACSR_1/0_6/1" Seasons=1 Ratings=[400,] normamps=334 emergamps=334
New "Line.tyn202_x_2_070_abc75470" phases=3 bus1=53789.1.2.3 bus2=75470.1.2.3 length=41.148 units=m spacing=3PH_HORIZ_LG_1C_3 wires="AL_4/0_7STR AL_4/0_7STR AL_4/0_7STR ACSR_1/0_6/1" Seasons=1 Ratings=[400,] normamps=334 emergamps=334
New "Line.tyn202_x_2_069_abc75448" phases=3 bus1=75470.1.2.3 bus2=75448.1.2.3 length=112.4712 units=m spacing=3PH_HORIZ_LG_1C_3 wires="AL_4/0_7STR AL_4/0_7STR AL_4/0_7STR ACSR_1/0_6/1" Seasons=1 Ratings=[400,] normamps=334 emergamps=334
New "Line.tyn202_x_2_068_abc16389" phases=3 bus1=75448.1.2.3 bus2=16389.1.2.3 length=106.68 units=m spacing=3PH_HORIZ_LG_1C_3 wires="AL_4/0_7STR AL_4/0_7STR AL_4/0_7STR ACSR_1/0_6/1" Seasons=1 Ratings=[400,] normamps=334 emergamps=334
New "Line.tyn202_x_2_055_abc16388" phases=3 bus1=16389.1.2.3 bus2=16388.1.2.3 length=107.2896 units=m spacing=3PH_HORIZ_LG_1C_3 wires="AL_4/0_7STR AL_4/0_7STR AL_4/0_7STR ACSR_1/0_6/1" Seasons=1 Ratings=[400,] normamps=334 emergamps=334
New "Line.tyn202_x_2_067_abc23005" phases=3 bus1=16388.1.2.3 bus2=23005.1.2.3 length=69.7992 units=m spacing=3PH_HORIZ_LG_1C_3 wires="AL_4/0_7STR AL_4/0_7STR AL_4/0_7STR ACSR_1/0_6/1" Seasons=1 Ratings=[400,] normamps=334 emergamps=334
New "Line.tyn202_x_5_079_abc105573" phases=3 bus1=23005.1.2.3 bus2=105573.1.2.3 length=154.2288 units=m spacing=3PH_HORIZ_LG_1C_3 wires="AL_4/0_7STR AL_4/0_7STR AL_4/0_7STR ACSR_1/0_6/1" Seasons=1 Ratings=[400,] normamps=334 emergamps=334
New "Line.tyn202_53921usd" phases=3 bus1=105573.1.2.3 bus2=53921.1.2.3 length=1.524 units=m spacing=3PH_HORIZ_LG_1C_3 wires="BUSBAR BUSBAR BUSBAR BUSBAR" Seasons=1 Ratings=[400,] normamps=2000 emergamps=2000
New "Line.tyn202_x_5_350_abc1147854" phases=3 bus1=53921.1.2.3 bus2=1147854.1.2.3 length=51.816 units=m spacing=3PH_HORIZ_LG_1C_3 wires="AL_4/0_7STR AL_4/0_7STR AL_4/0_7STR ACSR_1/0_6/1" Seasons=1 Ratings=[400,] normamps=334 emergamps=334
New "Line.tyn202_x_5_337_b53926" phases=1 bus1=53921.2 bus2=53926.2 length=50.9016 units=m spacing=1PH_1 wires="AL_1/0_7STR ACSR_1/0_6/1" Seasons=1 Ratings=[400,] normamps=216 emergamps=216
New "Line.tyn202_105580fuse" phases=1 bus1=53926.2 bus2=105580.2 length=1.524 units=m spacing=1PH_1 wires="BUSBAR BUSBAR" Seasons=1 Ratings=[400,] normamps=2000 emergamps=2000
New "Line.tyn202_x_5_338_b53956" phases=1 bus1=105580.2 bus2=53956.2 length=73.7616 units=m spacing=1PH_1 wires="AL_1/0_7STR ACSR_1/0_6/1" Seasons=1 Ratings=[400,] normamps=216 emergamps=216
New "Line.tyn202_x_5_339_b53950" phases=1 bus1=53956.2 bus2=53950.2 length=38.1 units=m spacing=1PH_1 wires="AL_1/0_7STR ACSR_1/0_6/1" Seasons=1 Ratings=[400,] normamps=216 emergamps=216
New "Line.tyn202_x_5_353_b53948" phases=1 bus1=53950.2 bus2=53948.2 length=50.292 units=m spacing=1PH_1 wires="ACSR_1/0_6/1 ACSR_1/0_6/1" Seasons=1 Ratings=[400,] normamps=255 emergamps=255
New "Line.tyn202_x_5_354_b53949" phases=1 bus1=53948.2 bus2=53949.2 length=67.6656 units=m spacing=1PH_1 wires="ACSR_1/0_6/1 ACSR_1/0_6/1" Seasons=1 Ratings=[400,] normamps=255 emergamps=255
New "Line.tyn202_1093730fuse" phases=2 bus1=23005.1.2 bus2=1093730.1.2 length=1.524 units=m spacing=2PH_HORIZ_LG_1C_2 wires="BUSBAR BUSBAR BUSBAR" Seasons=1 Ratings=[400,] normamps=2000 emergamps=2000
New "Line.tyn202_x_5_246_ab53920" phases=2 bus1=1093730.1.2 bus2=53920.1.2 length=98.1456 units=m spacing=2PH_HORIZ_LG_1C_2 wires="AL_#2_7STR AL_#2_7STR ACSR_1/0_6/1" Seasons=1 Ratings=[400,] normamps=162 emergamps=162
New "Line.tyn202_x_2_067_ab1093729" phases=2 bus1=1093730.1.2 bus2=1093729.1.2 length=43.2816 units=m spacing=2PH_HORIZ_LG_1C_2 wires="CU_#6_1STR CU_#6_1STR ACSR_1/0_6/1" Seasons=1 Ratings=[400,] normamps=112 emergamps=112
New "Line.tyn202_1012828fuse" phases=1 bus1=1093729.1 bus2=1012828.1 length=1.524 units=m spacing=1PH_1 wires="BUSBAR BUSBAR" Seasons=1 Ratings=[400,] normamps=2000 emergamps=2000
New "Line.tyn202_x_2_310_a53922" phases=1 bus1=1012828.1 bus2=53922.1 length=61.8744 units=m spacing=1PH_1 wires="AL_#2_7STR ACSR_1/0_6/1" Seasons=1 Ratings=[400,] normamps=162 emergamps=162
New "Line.tyn202_x_2_311_a53924" phases=1 bus1=53922.1 bus2=53924.1 length=53.0352 units=m spacing=1PH_1 wires="AL_#2_7STR ACSR_1/0_6/1" Seasons=1 Ratings=[400,] normamps=162 emergamps=162
New "Line.tyn202_x_2_054_abc16392" phases=3 bus1=16388.1.2.3 bus2=16392.1.2.3 length=20.1168 units=m spacing=3PH_HORIZ_LG_1C_3 wires="ACSR_1/0_6/1 ACSR_1/0_6/1 ACSR_1/0_6/1 ACSR_1/0_6/1" Seasons=1 Ratings=[400,] normamps=255 emergamps=255
New "Line.tyn202_1187660fuse" phases=3 bus1=16388.1.2.3 bus2=1187660.1.2.3 length=1.524 units=m spacing=3PH_HORIZ_LG_1C_3 wires="BUSBAR BUSBAR BUSBAR BUSBAR" Seasons=1 Ratings=[400,] normamps=2000 emergamps=2000
New "Line.tyn202_x_2_056_abc2645" phases=3 bus1=1187660.1.2.3 bus2=2645.1.2.3 length=64.008 units=m spacing=3PH_HORIZ_LG_1C_3 wires="AL_#2_7STR AL_#2_7STR AL_#2_7STR ACSR_1/0_6/1" Seasons=1 Ratings=[400,] normamps=162 emergamps=162
New "Line.tyn202_x_2_273_abc2615" phases=3 bus1=2645.1.2.3 bus2=2615.1.2.3 length=67.3608 units=m spacing=3PH_HORIZ_LG_1C_3 wires="AL_#2_7STR AL_#2_7STR AL_#2_7STR ACSR_1/0_6/1" Seasons=1 Ratings=[400,] normamps=162 emergamps=162
New "Line.tyn202_x_2_382_abc2616" phases=3 bus1=2615.1.2.3 bus2=2616.1.2.3 length=38.1 units=m spacing=3PH_HORIZ_LG_1C_3 wires="AL_#2_7STR AL_#2_7STR AL_#2_7STR ACSR_1/0_6/1" Seasons=1 Ratings=[400,] normamps=162 emergamps=162
New "Line.tyn202_x_2_115_a16394" phases=1 bus1=2645.1 bus2=16394.1 length=48.768 units=m spacing=1PH_1 wires="AL_#2_7STR ACSR_1/0_6/1" Seasons=1 Ratings=[400,] normamps=162 emergamps=162
New "Line.tyn202_100661fuse" phases=1 bus1=2645.2 bus2=100661.2 length=1.524 units=m spacing=1PH_1 wires="BUSBAR BUSBAR" Seasons=1 Ratings=[400,] normamps=2000 emergamps=2000
New "Line.tyn202_x_2_057_b2642" phases=1 bus1=100661.2 bus2=2642.2 length=68.58 units=m spacing=1PH_1 wires="CU_#6_1STR ACSR_1/0_6/1" Seasons=1 Ratings=[400,] normamps=112 emergamps=112
New "Line.tyn202_x_2_058_b2626" phases=1 bus1=2642.2 bus2=2626.2 length=79.5528 units=m spacing=1PH_1 wires="CU_#6_1STR ACSR_1/0_6/1" Seasons=1 Ratings=[400,] normamps=112 emergamps=112
New "Line.tyn202_x_2_306_b2627" phases=1 bus1=2626.2 bus2=2627.2 length=19.812 units=m spacing=1PH_1 wires="AL_#2_7STR ACSR_1/0_6/1" Seasons=1 Ratings=[400,] normamps=162 emergamps=162
New "Line.tyn202_x_2_307_b75452" phases=1 bus1=2627.2 bus2=75452.2 length=59.7408 units=m spacing=1PH_1 wires="AL_#2_7STR ACSR_1/0_6/1" Seasons=1 Ratings=[400,] normamps=162 emergamps=162
New "Line.tyn202_x_2_308_b53794" phases=1 bus1=75452.2 bus2=53794.2 length=75.5904 units=m spacing=1PH_1 wires="AL_#2_7STR ACSR_1/0_6/1" Seasons=1 Ratings=[400,] normamps=162 emergamps=162
New "Line.tyn202_x_2_380_b53795" phases=1 bus1=53794.2 bus2=53795.2 length=80.772 units=m spacing=1PH_1 wires="AL_1/0_7STR ACSR_1/0_6/1" Seasons=1 Ratings=[400,] normamps=216 emergamps=216
New "Line.tyn202_x_2_423_b75625" phases=1 bus1=53795.2 bus2=75625.2 length=52.4256 units=m spacing=1PH_1 wires="ACSR_1/0_6/1 ACSR_1/0_6/1" Seasons=1 Ratings=[400,] normamps=255 emergamps=255
New "Line.tyn202_x_2_037_b2646" phases=1 bus1=2626.2 bus2=2646.2 length=72.8472 units=m spacing=1PH_1 wires="AL_#2_7STR ACSR_1/0_6/1" Seasons=1 Ratings=[400,] normamps=162 emergamps=162
New "Line.tyn202_1151552fuse" phases=3 bus1=53789.1.2.3 bus2=1151552.1.2.3 length=1.524 units=m spacing=3PH_HORIZ_LG_1C_3 wires="BUSBAR BUSBAR BUSBAR BUSBAR" Seasons=1 Ratings=[400,] normamps=2000 emergamps=2000
New "Line.tyn202_x_2_402_abc1151551" phases=3 bus1=1151552.1.2.3 bus2=1151551.1.2.3 length=11.2776 units=m spacing=3PH_HORIZ_LG_1C_3 wires="AL_#2_7STR AL_#2_7STR AL_#2_7STR ACSR_1/0_6/1" Seasons=1 Ratings=[400,] normamps=162 emergamps=162
New "Line.tyn202_x_2_132_abc53793" phases=3 bus1=1151551.1.2.3 bus2=53793.1.2.3 length=41.4528 units=m spacing=3PH_HORIZ_LG_1C_3 wires="AL_#2_7STR AL_#2_7STR AL_#2_7STR ACSR_1/0_6/1" Seasons=1 Ratings=[400,] normamps=162 emergamps=162
New "Line.tyn202_x_2_408_abc53796" phases=3 bus1=53793.1.2.3 bus2=53796.1.2.3 length=12.8016 units=m spacing=3PH_HORIZ_LG_1C_3 wires="AL_#2_7STR AL_#2_7STR AL_#2_7STR ACSR_1/0_6/1" Seasons=1 Ratings=[400,] normamps=162 emergamps=162
New "Line.tyn202_x_2_187_abc53797" phases=3 bus1=53793.1.2.3 bus2=53797.1.2.3 length=38.1 units=m spacing=3PH_HORIZ_LG_1C_3 wires="AL_#2_7STR AL_#2_7STR AL_#2_7STR ACSR_1/0_6/1" Seasons=1 Ratings=[400,] normamps=162 emergamps=162
New "Line.tyn202_x_2_188_abc53798" phases=3 bus1=53797.1.2.3 bus2=53798.1.2.3 length=52.4256 units=m spacing=3PH_HORIZ_LG_1C_3 wires="AL_#2_7STR AL_#2_7STR AL_#2_7STR ACSR_1/0_6/1" Seasons=1 Ratings=[400,] normamps=162 emergamps=162
New "Line.tyn202_x_2_152_abc53801" phases=3 bus1=53797.1.2.3 bus2=53801.1.2.3 length=44.8056 units=m spacing=3PH_HORIZ_LG_1C_3 wires="AL_#2_7STR AL_#2_7STR AL_#2_7STR ACSR_1/0_6/1" Seasons=1 Ratings=[400,] normamps=162 emergamps=162
New "Line.tyn202_x_2_361_abc64741" phases=3 bus1=53801.1.2.3 bus2=64741.1.2.3 length=50.292 units=m spacing=3PH_HORIZ_LG_1C_3 wires="AL_#2_7STR AL_#2_7STR AL_#2_7STR ACSR_1/0_6/1" Seasons=1 Ratings=[400,] normamps=162 emergamps=162
New "Line.tyn202_x_2_150_ac64742" phases=2 bus1=64741.1.3 bus2=64742.1.3 length=40.8432 units=m spacing=2PH_HORIZ_LG_1C_2 wires="AL_1/0_7STR AL_1/0_7STR ACSR_1/0_6/1" Seasons=1 Ratings=[400,] normamps=216 emergamps=216
New "Line.tyn202_x_2_146_ac75620" phases=2 bus1=64742.1.3 bus2=75620.1.3 length=54.2544 units=m spacing=2PH_HORIZ_LG_1C_2 wires="AL_1/0_7STR AL_1/0_7STR ACSR_1/0_6/1" Seasons=1 Ratings=[400,] normamps=216 emergamps=216
New "Line.tyn202_108946fuse" phases=1 bus1=75620.1 bus2=108946.1 length=1.524 units=m spacing=1PH_1 wires="BUSBAR BUSBAR" Seasons=1 Ratings=[400,] normamps=2000 emergamps=2000
New "Line.tyn202_x_2_103_a75626" phases=1 bus1=108946.1 bus2=75626.1 length=54.5592 units=m spacing=1PH_1 wires="AL_#2_7STR ACSR_1/0_6/1" Seasons=1 Ratings=[400,] normamps=162 emergamps=162
New "Line.tyn202_x_2_193_a75631" phases=1 bus1=75626.1 bus2=75631.1 length=61.8744 units=m spacing=1PH_1 wires="AL_#2_7STR ACSR_1/0_6/1" Seasons=1 Ratings=[400,] normamps=162 emergamps=162
New "Line.tyn202_x_2_194_a2367" phases=1 bus1=75631.1 bus2=2367.1 length=56.9976 units=m spacing=1PH_1 wires="AL_#2_7STR ACSR_1/0_6/1" Seasons=1 Ratings=[400,] normamps=162 emergamps=162
New "Line.tyn202_x_2_360_a2368" phases=1 bus1=2367.1 bus2=2368.1 length=34.7472 units=m spacing=1PH_1 wires="AL_#2_7STR ACSR_1/0_6/1" Seasons=1 Ratings=[400,] normamps=162 emergamps=162
New "Line.tyn202_x_2_195_a2370" phases=1 bus1=2368.1 bus2=2370.1 length=25.2984 units=m spacing=1PH_1 wires="AL_#2_7STR ACSR_1/0_6/1" Seasons=1 Ratings=[400,] normamps=162 emergamps=162
New "Line.tyn202_x_2_196_a2375" phases=1 bus1=2370.1 bus2=2375.1 length=57.3024 units=m spacing=1PH_1 wires="AL_#2_7STR ACSR_1/0_6/1" Seasons=1 Ratings=[400,] normamps=162 emergamps=162
New "Line.tyn202_x_2_264_a75383" phases=1 bus1=2375.1 bus2=75383.1 length=29.8704 units=m spacing=1PH_1 wires="AL_#2_7STR ACSR_1/0_6/1" Seasons=1 Ratings=[400,] normamps=162 emergamps=162
New "Line.tyn202_x_2_192_a64750" phases=1 bus1=75626.1 bus2=64750.1 length=49.0728 units=m spacing=1PH_1 wires="AL_#2_7STR ACSR_1/0_6/1" Seasons=1 Ratings=[400,] normamps=162 emergamps=162
New "Line.tyn202_x_2_200_a64751" phases=1 bus1=64750.1 bus2=64751.1 length=57.912 units=m spacing=1PH_1 wires="AL_#2_7STR ACSR_1/0_6/1" Seasons=1 Ratings=[400,] normamps=162 emergamps=162
New "Line.tyn202_x_2_201_a29643" phases=1 bus1=64751.1 bus2=29643.1 length=59.436 units=m spacing=1PH_1 wires="AL_#2_7STR ACSR_1/0_6/1" Seasons=1 Ratings=[400,] normamps=162 emergamps=162
New "Line.tyn202_x_2_202_a29642" phases=1 bus1=29643.1 bus2=29642.1 length=60.0456 units=m spacing=1PH_1 wires="AL_#2_7STR ACSR_1/0_6/1" Seasons=1 Ratings=[400,] normamps=162 emergamps=162
New "Line.tyn202_x_2_377_a98959" phases=1 bus1=29642.1 bus2=98959.1 length=10.9728 units=m spacing=1PH_1 wires="AL_#2_7STR ACSR_1/0_6/1" Seasons=1 Ratings=[400,] normamps=162 emergamps=162
New "Line.tyn202_2371fuse" phases=1 bus1=98959.1 bus2=2371.1 length=1.524 units=m spacing=1PH_1 wires="BUSBAR BUSBAR" Seasons=1 Ratings=[400,] normamps=2000 emergamps=2000
New "Line.tyn202_x_2p010_a1169728" phases=1 bus1=2371.1 bus2=1169728.1 length=9.144 units=m linecode=ug_1/0al_1 Seasons=1 Ratings=[400,] normamps=150 emergamps=600
New "Line.tyn202_2372elb" phases=1 bus1=1169728.1 bus2=2372.1 length=1.524 units=m linecode=basic1 Seasons=1 Ratings=[400,] Normamps=400 emergamps=600 
New "Line.tyn202_1169727elb" phases=1 bus1=2372.1 bus2=1169727.1 length=1.524 units=m linecode=basic1 Seasons=1 Ratings=[400,] Normamps=400 emergamps=600 
New "Line.tyn202_x_2p008_a1169729" phases=1 bus1=1169727.1 bus2=1169729.1 length=92.3544 units=m linecode=ug_1/0al_1 Seasons=1 Ratings=[400,] normamps=150 emergamps=600
New "Line.tyn202_75633elb" phases=1 bus1=1169729.1 bus2=75633.1 length=1.524 units=m linecode=basic1 Seasons=1 Ratings=[400,] Normamps=400 emergamps=600 
New "Line.tyn202_1169730elb" phases=1 bus1=75633.1 bus2=1169730.1 length=1.524 units=m linecode=basic1 Seasons=1 Ratings=[400,] Normamps=400 emergamps=600 
New "Line.tyn202_x_2p007_a1169731" phases=1 bus1=1169730.1 bus2=1169731.1 length=72.2376 units=m linecode=ug_1/0al_1 Seasons=1 Ratings=[400,] normamps=150 emergamps=600
...
