trunk/Version8/Distrib/Examples/Voltage_ride_through_IBR/Load.dss
New "Load.tyn202_w_9_395_a75432-1_0" phases=1 bus1=75432.1 kV=7.19955785679 kW=33.955874 kvar=13.781818 class=2 yearly=Commercial_SM
New "Load.tyn202_w_9_252_a86105-1_0" phases=1 bus1=86105.1 kV=7.19955785679 kW=2.552452 kvar=1.035975 class=1 yearly=Residential
New "Load.tyn202_w_9_048_abc86108-1_0" phases=1 bus1=86108.2 kV=7.19955785679 kW=21.966727 kvar=7.953035 class=2 yearly=Commercial_SM
New "Load.tyn202_w_9_126_a53887-1_0" phases=1 bus1=53887.1 kV=7.19955785679 kW=1.175396 kvar=0.477063 class=1 yearly=Residential
New "Load.tyn202_w_8_103_abc53884-1_0" phases=1 bus1=53884.3 kV=7.19955785679 kW=1.009809 kvar=0.384282 class=2 yearly=Commercial_SM
New "Load.tyn202_53900elb-1_0" phases=1 bus1=53900.1 kV=7.19955785679 kW=7.375032 kvar=2.993336 class=3 yearly=Commercial_MD
New "Load.tyn202_53900elb-1_1" phases=1 bus1=53900.2 kV=7.19955785679 kW=7.617142 kvar=2.75778 class=3 yearly=Commercial_MD
New "Load.tyn202_53900elb-1_2" phases=1 bus1=53900.3 kV=7.19955785679 kW=7.529447 kvar=2.865328 class=3 yearly=Commercial_MD
New "Load.tyn202_w_8_101_abc53820-1_0" phases=1 bus1=53820.1 kV=7.19955785679 kW=6.451232 kvar=2.61839 class=3 yearly=Commercial_MD
New "Load.tyn202_w_8_101_abc53820-1_1" phases=1 bus1=53820.2 kV=7.19955785679 kW=7.831374 kvar=2.835342 class=3 yearly=Commercial_MD
New "Load.tyn202_w_8_101_abc53820-1_2" phases=1 bus1=53820.3 kV=7.19955785679 kW=7.741213 kvar=2.945915 class=3 yearly=Commercial_MD
New "Load.tyn202_w_8_100_abc53819-1_0" phases=1 bus1=53819.2 kV=7.19955785679 kW=9.943941 kvar=3.600196 class=2 yearly=Commercial_SM
New "Load.tyn202_w_8_100_abc53819-1_1" phases=1 bus1=53819.2 kV=7.19955785679 kW=6.123468 kvar=2.216997 class=2 yearly=Commercial_SM
New "Load.tyn202_w_8_100_abc53819-1_2" phases=1 bus1=53819.2 kV=7.19955785679 kW=6.829641 kvar=2.472666 class=2 yearly=Commercial_SM
New "Load.tyn202_w_8_100_abc53819-1_3" phases=1 bus1=53819.2 kV=7.19955785679 kW=5.441099 kvar=1.969945 class=2 yearly=Commercial_SM
New "Load.tyn202_w_8_100_abc53819-1_4" phases=1 bus1=53819.2 kV=7.19955785679 kW=4.197363 kvar=1.519652 class=2 yearly=Commercial_SM
New "Load.tyn202_w_8_100_abc53819-1_5" phases=1 bus1=53819.2 kV=7.19955785679 kW=3.282909 kvar=1.188574 class=2 yearly=Commercial_SM
New "Load.tyn202_w_8_100_abc53819-1_6" phases=1 bus1=53819.2 kV=7.19955785679 kW=3.126202 kvar=1.131839 class=2 yearly=Commercial_SM
New "Load.tyn202_w_8_109_abc53818-1_0" phases=1 bus1=53818.3 kV=7.19955785679 kW=5.841204 kvar=2.222867 class=2 yearly=Commercial_SM
New "Load.tyn202_w_8_494_abc1163166-1_0" phases=1 bus1=1163166.2 kV=7.19955785679 kW=1.465903 kvar=0.530729 class=2 yearly=Commercial_SM
New "Load.tyn202_w_8_494_abc1163166-1_1" phases=1 bus1=1163166.3 kV=7.19955785679 kW=1.449026 kvar=0.551426 class=2 yearly=Commercial_SM
New "Load.tyn202_w_8_494_abc1163166-1_2" phases=1 bus1=1163166.2 kV=7.19955785679 kW=3.764931 kvar=1.36309 class=2 yearly=Commercial_SM
New "Load.tyn202_w_8_494_abc1163166-1_3" phases=1 bus1=1163166.3 kV=7.19955785679 kW=3.721586 kvar=1.416248 class=2 yearly=Commercial_SM
New "Load.tyn202_w_8_494_abc1163166-1_4" phases=1 bus1=1163166.2 kV=7.19955785679 kW=3.51301 kvar=1.271882 class=2 yearly=Commercial_SM
New "Load.tyn202_w_8_494_abc1163166-1_5" phases=1 bus1=1163166.3 kV=7.19955785679 kW=3.472565 kvar=1.321483 class=2 yearly=Commercial_SM
New "Load.tyn202_w_8_494_abc1163166-1_6" phases=1 bus1=1163166.2 kV=7.19955785679 kW=1.529379 kvar=0.553711 class=2 yearly=Commercial_SM
New "Load.tyn202_w_8_494_abc1163166-1_7" phases=1 bus1=1163166.3 kV=7.19955785679 kW=1.511772 kvar=0.575304 class=2 yearly=Commercial_SM
New "Load.tyn202_w_8_494_abc1163166-1_8" phases=1 bus1=1163166.2 kV=7.19955785679 kW=1.307213 kvar=0.473275 class=2 yearly=Commercial_SM
New "Load.tyn202_w_8_494_abc1163166-1_9" phases=1 bus1=1163166.3 kV=7.19955785679 kW=1.292163 kvar=0.491732 class=2 yearly=Commercial_SM
New "Load.tyn202_w_8_275_abc53830-1_0" phases=1 bus1=53830.1 kV=7.19955785679 kW=35.112064 kvar=14.251086 class=2 yearly=Commercial_SM
New "Load.tyn202_w_8_434_abc69899-1_0" phases=1 bus1=69899.1 kV=7.19955785679 kW=10.676511 kvar=4.333322 class=3 yearly=Commercial_MD
New "Load.tyn202_w_8_434_abc69899-1_1" phases=1 bus1=69899.2 kV=7.19955785679 kW=11.027003 kvar=3.992317 class=3 yearly=Commercial_MD
New "Load.tyn202_w_8_434_abc69899-1_2" phases=1 bus1=69899.3 kV=7.19955785679 kW=9.272593 kvar=3.528681 class=3 yearly=Commercial_MD
New "Load.tyn202_w_8_250_abc69892-1_0" phases=1 bus1=69892.1 kV=7.19955785679 kW=2.3143 kvar=0.939315 class=2 yearly=Commercial_SM
New "Load.tyn202_w_8_250_abc69892-1_1" phases=1 bus1=69892.2 kV=7.19955785679 kW=2.390275 kvar=0.865397 class=2 yearly=Commercial_SM
New "Load.tyn202_w_8_250_abc69892-1_10" phases=1 bus1=69892.2 kV=7.19955785679 kW=5.032471 kvar=1.822002 class=2 yearly=Commercial_SM
New "Load.tyn202_w_8_250_abc69892-1_11" phases=1 bus1=69892.3 kV=7.19955785679 kW=4.231393 kvar=1.610254 class=2 yearly=Commercial_SM
New "Load.tyn202_w_8_250_abc69892-1_2" phases=1 bus1=69892.3 kV=7.19955785679 kW=1.574517 kvar=0.599182 class=2 yearly=Commercial_SM
New "Load.tyn202_w_8_250_abc69892-1_3" phases=1 bus1=69892.1 kV=7.19955785679 kW=5.172125 kvar=2.099233 class=3 yearly=Commercial_MD
New "Load.tyn202_w_8_250_abc69892-1_4" phases=1 bus1=69892.2 kV=7.19955785679 kW=5.341918 kvar=1.934037 class=3 yearly=Commercial_MD
New "Load.tyn202_w_8_250_abc69892-1_5" phases=1 bus1=69892.3 kV=7.19955785679 kW=4.492178 kvar=1.709496 class=3 yearly=Commercial_MD
New "Load.tyn202_w_8_250_abc69892-1_6" phases=1 bus1=69892.1 kV=7.19955785679 kW=6.856475 kvar=2.782867 class=3 yearly=Commercial_MD
New "Load.tyn202_w_8_250_abc69892-1_7" phases=1 bus1=69892.2 kV=7.19955785679 kW=7.081562 kvar=2.563874 class=3 yearly=Commercial_MD
New "Load.tyn202_w_8_250_abc69892-1_8" phases=1 bus1=69892.3 kV=7.19955785679 kW=5.95493 kvar=2.266146 class=3 yearly=Commercial_MD
New "Load.tyn202_w_8_250_abc69892-1_9" phases=1 bus1=69892.1 kV=7.19955785679 kW=4.872514 kvar=1.977629 class=2 yearly=Commercial_SM
New "Load.tyn202_w_8_249_abc69891-1_0" phases=1 bus1=69891.3 kV=7.19955785679 kW=6.627482 kvar=2.522085 class=2 yearly=Commercial_SM
New "Load.tyn202_w_8_249_abc69891-1_1" phases=1 bus1=69891.3 kV=7.19955785679 kW=5.949048 kvar=2.263907 class=2 yearly=Commercial_SM
New "Load.tyn202_w_8_249_abc69891-1_2" phases=1 bus1=69891.3 kV=7.19955785679 kW=1.649027 kvar=0.627537 class=2 yearly=Commercial_SM
New "Load.tyn202_w_8_270_abc1151753-1_0" phases=1 bus1=1151753.1 kV=7.19955785679 kW=8.331481 kvar=3.381534 class=2 yearly=Commercial_SM
New "Load.tyn202_w_8_270_abc1151753-1_1" phases=1 bus1=1151753.2 kV=7.19955785679 kW=8.60499 kvar=3.11543 class=2 yearly=Commercial_SM
New "Load.tyn202_w_8_270_abc1151753-1_2" phases=1 bus1=1151753.3 kV=7.19955785679 kW=8.505923 kvar=3.236925 class=2 yearly=Commercial_SM
New "Load.tyn202_w_8_276_ab53829-1_0" phases=1 bus1=53829.1 kV=7.19955785679 kW=4.215676 kvar=1.711035 class=2 yearly=Commercial_SM
New "Load.tyn202_w_8_276_ab53829-1_1" phases=1 bus1=53829.2 kV=7.19955785679 kW=21.960776 kvar=7.950881 class=2 yearly=Commercial_SM
New "Load.tyn202_w_8_112_c53807-1_0" phases=1 bus1=53807.3 kV=7.19955785679 kW=5.590223 kvar=2.127357 class=1 yearly=Residential
New "Load.tyn202_w_8_112_c53807-1_1" phases=1 bus1=53807.3 kV=7.19955785679 kW=6.896111 kvar=2.624312 class=1 yearly=Residential
New "Load.tyn202_w_8_112_c53807-1_2" phases=1 bus1=53807.3 kV=7.19955785679 kW=1.801969 kvar=0.685739 class=1 yearly=Residential
New "Load.tyn202_w_8_112_c53807-1_3" phases=1 bus1=53807.3 kV=7.19955785679 kW=3.905901 kvar=1.486389 class=1 yearly=Residential
New "Load.tyn202_w_8_379_c53808-1_0" phases=1 bus1=53808.3 kV=7.19955785679 kW=9.400045 kvar=3.577182 class=2 yearly=Commercial_SM
New "Load.tyn202_w_8_379_c53808-1_1" phases=1 bus1=53808.3 kV=7.19955785679 kW=7.027484 kvar=2.674306 class=2 yearly=Commercial_SM
New "Load.tyn202_w_8_431_c1149757-1_0" phases=1 bus1=1149757.3 kV=7.19955785679 kW=7.031406 kvar=2.675798 class=2 yearly=Commercial_SM
New "Load.tyn202_w_8_431_c1149757-1_1" phases=1 bus1=1149757.3 kV=7.19955785679 kW=17.315768 kvar=6.589507 class=2 yearly=Commercial_SM
New "Load.tyn202_w_8_431_c1149757-1_2" phases=1 bus1=1149757.3 kV=7.19955785679 kW=3.082368 kvar=1.172993 class=2 yearly=Commercial_SM
New "Load.tyn202_w_8_431_c1149757-1_3" phases=1 bus1=1149757.3 kV=7.19955785679 kW=0.847063 kvar=0.322349 class=2 yearly=Commercial_SM
New "Load.tyn202_w_8_115_c85915-1_0" phases=1 bus1=85915.3 kV=7.19955785679 kW=0.178432 kvar=0.067902 class=1 yearly=Residential
New "Load.tyn202_w_8_115_c85915-1_1" phases=1 bus1=85915.3 kV=7.19955785679 kW=2.288246 kvar=0.870791 class=1 yearly=Residential
New "Load.tyn202_w_8_201_c1143216-1_0" phases=1 bus1=1143216.3 kV=7.19955785679 kW=2.725503 kvar=1.037189 class=1 yearly=Residential
New "Load.tyn202_w_8_201_c1143216-1_1" phases=1 bus1=1143216.3 kV=7.19955785679 kW=0.335296 kvar=0.127597 class=1 yearly=Residential
New "Load.tyn202_w_8_116_c85916-1_0" phases=1 bus1=85916.3 kV=7.19955785679 kW=3.625507 kvar=1.379685 class=1 yearly=Residential
New "Load.tyn202_w_8_116_c85916-1_1" phases=1 bus1=85916.3 kV=7.19955785679 kW=7.798076 kvar=2.967554 class=1 yearly=Residential
New "Load.tyn202_w_8_116_c85916-1_2" phases=1 bus1=85916.3 kV=7.19955785679 kW=3.139231 kvar=1.194633 class=1 yearly=Residential
New "Load.tyn202_1147961elb-1_0" phases=1 bus1=1147961.1 kV=7.19955785679 kW=19.718606 kvar=8.003276 class=3 yearly=Commercial_MD
New "Load.tyn202_1147961elb-1_1" phases=1 bus1=1147961.2 kV=7.19955785679 kW=20.365937 kvar=7.37347 class=3 yearly=Commercial_MD
New "Load.tyn202_1147961elb-1_2" phases=1 bus1=1147961.3 kV=7.19955785679 kW=20.131468 kvar=7.66102 class=3 yearly=Commercial_MD
New "Load.tyn202_w_8_099_abc71114-1_0" phases=1 bus1=71114.2 kV=7.19955785679 kW=7.389025 kvar=2.67519 class=2 yearly=Commercial_SM
New "Load.tyn202_w_8_099_abc71114-1_1" phases=1 bus1=71114.2 kV=7.19955785679 kW=14.301978 kvar=5.178019 class=2 yearly=Commercial_SM
New "Load.tyn202_w_8_099_abc71114-1_2" phases=1 bus1=71114.2 kV=7.19955785679 kW=1.844777 kvar=0.6679 class=2 yearly=Commercial_SM
New "Load.tyn202_w_8_099_abc71114-1_3" phases=1 bus1=71114.2 kV=7.19955785679 kW=2.39821 kvar=0.86827 class=2 yearly=Commercial_SM
New "Load.tyn202_w_8_099_abc71114-1_4" phases=1 bus1=71114.2 kV=7.19955785679 kW=8.954109 kvar=3.241828 class=2 yearly=Commercial_SM
New "Load.tyn202_w_8_099_abc71114-1_5" phases=1 bus1=71114.2 kV=7.19955785679 kW=6.82369 kvar=2.470511 class=2 yearly=Commercial_SM
New "Load.tyn202_69902elb-1_0" phases=1 bus1=69902.3 kV=7.19955785679 kW=0.627454 kvar=0.238777 class=2 yearly=Commercial_SM
New "Load.tyn202_69902elb-1_1" phases=1 bus1=69902.1 kV=7.19955785679 kW=0.614586 kvar=0.249445 class=2 yearly=Commercial_SM
New "Load.tyn202_69902elb-1_10" phases=1 bus1=69902.2 kV=7.19955785679 kW=5.082062 kvar=1.839956 class=2 yearly=Commercial_SM
New "Load.tyn202_69902elb-1_11" phases=1 bus1=69902.3 kV=7.19955785679 kW=5.023553 kvar=1.911711 class=2 yearly=Commercial_SM
New "Load.tyn202_69902elb-1_12" phases=1 bus1=69902.1 kV=7.19955785679 kW=3.069089 kvar=1.245664 class=2 yearly=Commercial_SM
New "Load.tyn202_69902elb-1_13" phases=1 bus1=69902.2 kV=7.19955785679 kW=3.169842 kvar=1.147639 class=2 yearly=Commercial_SM
New "Load.tyn202_69902elb-1_14" phases=1 bus1=69902.3 kV=7.19955785679 kW=3.133348 kvar=1.192394 class=2 yearly=Commercial_SM
New "Load.tyn202_69902elb-1_15" phases=1 bus1=69902.1 kV=7.19955785679 kW=9.731585 kvar=3.949801 class=2 yearly=Commercial_SM
New "Load.tyn202_69902elb-1_16" phases=1 bus1=69902.2 kV=7.19955785679 kW=10.051057 kvar=3.638977 class=2 yearly=Commercial_SM
New "Load.tyn202_69902elb-1_17" phases=1 bus1=69902.3 kV=7.19955785679 kW=9.935341 kvar=3.780889 class=2 yearly=Commercial_SM
New "Load.tyn202_69902elb-1_18" phases=1 bus1=69902.1 kV=7.19955785679 kW=2.037737 kvar=0.827065 class=2 yearly=Commercial_SM
New "Load.tyn202_69902elb-1_19" phases=1 bus1=69902.2 kV=7.19955785679 kW=2.104632 kvar=0.76198 class=2 yearly=Commercial_SM
New "Load.tyn202_69902elb-1_2" phases=1 bus1=69902.2 kV=7.19955785679 kW=0.634762 kvar=0.229815 class=2 yearly=Commercial_SM
New "Load.tyn202_69902elb-1_20" phases=1 bus1=69902.3 kV=7.19955785679 kW=2.080402 kvar=0.791696 class=2 yearly=Commercial_SM
New "Load.tyn202_69902elb-1_3" phases=1 bus1=69902.1 kV=7.19955785679 kW=3.055645 kvar=1.240208 class=2 yearly=Commercial_SM
New "Load.tyn202_69902elb-1_4" phases=1 bus1=69902.2 kV=7.19955785679 kW=3.155957 kvar=1.142611 class=2 yearly=Commercial_SM
New "Load.tyn202_69902elb-1_5" phases=1 bus1=69902.3 kV=7.19955785679 kW=3.119623 kvar=1.187171 class=2 yearly=Commercial_SM
New "Load.tyn202_69902elb-1_6" phases=1 bus1=69902.1 kV=7.19955785679 kW=2.21443 kvar=0.89878 class=2 yearly=Commercial_SM
New "Load.tyn202_69902elb-1_7" phases=1 bus1=69902.2 kV=7.19955785679 kW=2.287126 kvar=0.828052 class=2 yearly=Commercial_SM
New "Load.tyn202_69902elb-1_8" phases=1 bus1=69902.3 kV=7.19955785679 kW=2.260795 kvar=0.860344 class=2 yearly=Commercial_SM
New "Load.tyn202_69902elb-1_9" phases=1 bus1=69902.1 kV=7.19955785679 kW=4.920529 kvar=1.997116 class=2 yearly=Commercial_SM
New "Load.tyn202_x_2_350_a1124195-1_0" phases=1 bus1=1124195.1 kV=7.19955785679 kW=3.14015 kvar=1.274506 class=2 yearly=Commercial_SM
New "Load.tyn202_x_2_350_a1124195-1_1" phases=1 bus1=1124195.1 kV=7.19955785679 kW=0.03457 kvar=0.014031 class=2 yearly=Commercial_SM
New "Load.tyn202_x_2_350_a1124195-1_10" phases=1 bus1=1124195.1 kV=7.19955785679 kW=0.090267 kvar=0.036637 class=2 yearly=Commercial_SM
New "Load.tyn202_x_2_350_a1124195-1_11" phases=1 bus1=1124195.1 kV=7.19955785679 kW=19.205811 kvar=7.795146 class=2 yearly=Commercial_SM
New "Load.tyn202_x_2_350_a1124195-1_12" phases=1 bus1=1124195.1 kV=7.19955785679 kW=0.224708 kvar=0.091203 class=2 yearly=Commercial_SM
New "Load.tyn202_x_2_350_a1124195-1_2" phases=1 bus1=1124195.1 kV=7.19955785679 kW=0.393719 kvar=0.1598 class=2 yearly=Commercial_SM
New "Load.tyn202_x_2_350_a1124195-1_3" phases=1 bus1=1124195.1 kV=7.19955785679 kW=0.386037 kvar=0.156682 class=2 yearly=Commercial_SM
New "Load.tyn202_x_2_350_a1124195-1_4" phases=1 bus1=1124195.1 kV=7.19955785679 kW=4.707344 kvar=1.91059 class=2 yearly=Commercial_SM
New "Load.tyn202_x_2_350_a1124195-1_5" phases=1 bus1=1124195.1 kV=7.19955785679 kW=0.376434 kvar=0.152785 class=2 yearly=Commercial_SM
New "Load.tyn202_x_2_350_a1124195-1_6" phases=1 bus1=1124195.1 kV=7.19955785679 kW=0.122917 kvar=0.049889 class=2 yearly=Commercial_SM
New "Load.tyn202_x_2_350_a1124195-1_7" phases=1 bus1=1124195.1 kV=7.19955785679 kW=0.138282 kvar=0.056125 class=2 yearly=Commercial_SM
New "Load.tyn202_x_2_350_a1124195-1_8" phases=1 bus1=1124195.1 kV=7.19955785679 kW=1.284869 kvar=0.521495 class=2 yearly=Commercial_SM
New "Load.tyn202_x_2_350_a1124195-1_9" phases=1 bus1=1124195.1 kV=7.19955785679 kW=7.544043 kvar=3.061933 class=2 yearly=Commercial_SM
New "Load.tyn202_x_2_079_abc75650-1_0" phases=1 bus1=75650.1 kV=7.19955785679 kW=4.784168 kvar=1.941771 class=3 yearly=Commercial_MD
New "Load.tyn202_x_2_079_abc75650-1_1" phases=1 bus1=75650.2 kV=7.19955785679 kW=4.941224 kvar=1.788966 class=3 yearly=Commercial_MD
New "Load.tyn202_x_2_079_abc75650-1_2" phases=1 bus1=75650.3 kV=7.19955785679 kW=6.598071 kvar=2.510893 class=3 yearly=Commercial_MD
New "Load.tyn202_x_2_079_abc75650-1_3" phases=1 bus1=75650.1 kV=7.19955785679 kW=0.059538 kvar=0.024165 class=2 yearly=Commercial_SM
New "Load.tyn202_x_2_079_abc75650-1_4" phases=1 bus1=75650.2 kV=7.19955785679 kW=0.061493 kvar=0.022263 class=2 yearly=Commercial_SM
New "Load.tyn202_x_2_079_abc75650-1_5" phases=1 bus1=75650.3 kV=7.19955785679 kW=0.119608 kvar=0.045517 class=2 yearly=Commercial_SM
New "Load.tyn202_x_2_079_abc75650-1_6" phases=1 bus1=75650.1 kV=7.19955785679 kW=0.16517 kvar=0.067038 class=2 yearly=Commercial_SM
New "Load.tyn202_x_2_079_abc75650-1_7" phases=1 bus1=75650.2 kV=7.19955785679 kW=0.170592 kvar=0.061763 class=2 yearly=Commercial_SM
New "Load.tyn202_x_2_079_abc75650-1_8" phases=1 bus1=75650.3 kV=7.19955785679 kW=0.339217 kvar=0.129089 class=2 yearly=Commercial_SM
New "Load.tyn202_x_2_083_abc75652-1_0" phases=1 bus1=75652.3 kV=7.19955785679 kW=0.001961 kvar=0.000746 class=1 yearly=Residential
New "Load.tyn202_x_2_083_abc75652-1_1" phases=1 bus1=75652.3 kV=7.19955785679 kW=0.058824 kvar=0.022385 class=2 yearly=Commercial_SM
New "Load.tyn202_x_2_083_abc75652-1_2" phases=1 bus1=75652.3 kV=7.19955785679 kW=1.064711 kvar=0.405175 class=1 yearly=Residential
New "Load.tyn202_x_2_083_abc75652-1_3" phases=1 bus1=75652.3 kV=7.19955785679 kW=0.145099 kvar=0.055217 class=2 yearly=Commercial_SM
New "Load.tyn202_x_2_083_abc75652-1_4" phases=1 bus1=75652.3 kV=7.19955785679 kW=2.843151 kvar=1.08196 class=1 yearly=Residential
New "Load.tyn202_x_2_083_abc75652-1_5" phases=1 bus1=75652.3 kV=7.19955785679 kW=1.888244 kvar=0.71857 class=1 yearly=Residential
New "Load.tyn202_x_2_083_abc75652-1_6" phases=1 bus1=75652.3 kV=7.19955785679 kW=2.525502 kvar=0.961079 class=1 yearly=Residential
New "Load.tyn202_x_2_411_abc41203-1_0" phases=1 bus1=41203.1 kV=7.19955785679 kW=1.434674 kvar=0.582297 class=2 yearly=Commercial_SM
New "Load.tyn202_x_2_411_abc41203-1_1" phases=1 bus1=41203.2 kV=7.19955785679 kW=1.481772 kvar=0.536474 class=2 yearly=Commercial_SM
New "Load.tyn202_x_2_411_abc41203-1_10" phases=1 bus1=41203.2 kV=7.19955785679 kW=9.021553 kvar=3.266246 class=2 yearly=Commercial_SM
New "Load.tyn202_x_2_411_abc41203-1_11" phases=1 bus1=41203.3 kV=7.19955785679 kW=8.917689 kvar=3.393622 class=2 yearly=Commercial_SM
New "Load.tyn202_x_2_411_abc41203-1_12" phases=1 bus1=41203.1 kV=7.19955785679 kW=1.605606 kvar=0.651674 class=2 yearly=Commercial_SM
New "Load.tyn202_x_2_411_abc41203-1_13" phases=1 bus1=41203.2 kV=7.19955785679 kW=1.658315 kvar=0.600392 class=2 yearly=Commercial_SM
New "Load.tyn202_x_2_411_abc41203-1_14" phases=1 bus1=41203.3 kV=7.19955785679 kW=1.639223 kvar=0.623806 class=2 yearly=Commercial_SM
New "Load.tyn202_x_2_411_abc41203-1_15" phases=1 bus1=41203.1 kV=7.19955785679 kW=0.238152 kvar=0.09666 class=2 yearly=Commercial_SM
New "Load.tyn202_x_2_411_abc41203-1_16" phases=1 bus1=41203.2 kV=7.19955785679 kW=0.24597 kvar=0.089053 class=2 yearly=Commercial_SM
New "Load.tyn202_x_2_411_abc41203-1_17" phases=1 bus1=41203.3 kV=7.19955785679 kW=0.243138 kvar=0.092526 class=2 yearly=Commercial_SM
New "Load.tyn202_x_2_411_abc41203-1_18" phases=1 bus1=41203.1 kV=7.19955785679 kW=0.426369 kvar=0.173052 class=2 yearly=Commercial_SM
New "Load.tyn202_x_2_411_abc41203-1_19" phases=1 bus1=41203.2 kV=7.19955785679 kW=0.440366 kvar=0.159434 class=2 yearly=Commercial_SM
New "Load.tyn202_x_2_411_abc41203-1_2" phases=1 bus1=41203.3 kV=7.19955785679 kW=1.464713 kvar=0.557396 class=2 yearly=Commercial_SM
New "Load.tyn202_x_2_411_abc41203-1_20" phases=1 bus1=41203.3 kV=7.19955785679 kW=0.435296 kvar=0.165652 class=2 yearly=Commercial_SM
New "Load.tyn202_x_2_411_abc41203-1_21" phases=1 bus1=41203.1 kV=7.19955785679 kW=1.163872 kvar=0.472386 class=2 yearly=Commercial_SM
New "Load.tyn202_x_2_411_abc41203-1_22" phases=1 bus1=41203.2 kV=7.19955785679 kW=1.20208 kvar=0.435212 class=2 yearly=Commercial_SM
New "Load.tyn202_x_2_411_abc41203-1_23" phases=1 bus1=41203.3 kV=7.19955785679 kW=1.188241 kvar=0.452185 class=2 yearly=Commercial_SM
New "Load.tyn202_x_2_411_abc41203-1_24" phases=1 bus1=41203.1 kV=7.19955785679 kW=5.863534 kvar=2.379858 class=2 yearly=Commercial_SM
New "Load.tyn202_x_2_411_abc41203-1_25" phases=1 bus1=41203.2 kV=7.19955785679 kW=6.056025 kvar=2.192579 class=2 yearly=Commercial_SM
New "Load.tyn202_x_2_411_abc41203-1_26" phases=1 bus1=41203.3 kV=7.19955785679 kW=5.986303 kvar=2.278085 class=2 yearly=Commercial_SM
New "Load.tyn202_x_2_411_abc41203-1_27" phases=1 bus1=41203.1 kV=7.19955785679 kW=4.438463 kvar=1.801458 class=2 yearly=Commercial_SM
New "Load.tyn202_x_2_411_abc41203-1_28" phases=1 bus1=41203.2 kV=7.19955785679 kW=4.584171 kvar=1.659695 class=2 yearly=Commercial_SM
New "Load.tyn202_x_2_411_abc41203-1_29" phases=1 bus1=41203.3 kV=7.19955785679 kW=4.531394 kvar=1.72442 class=2 yearly=Commercial_SM
New "Load.tyn202_x_2_411_abc41203-1_3" phases=1 bus1=41203.1 kV=7.19955785679 kW=4.202232 kvar=1.705578 class=2 yearly=Commercial_SM
New "Load.tyn202_x_2_411_abc41203-1_30" phases=1 bus1=41203.3 kV=7.19955785679 kW=1.523537 kvar=0.579781 class=2 yearly=Commercial_SM
New "Load.tyn202_x_2_411_abc41203-1_31" phases=1 bus1=41203.1 kV=7.19955785679 kW=1.492292 kvar=0.605683 class=2 yearly=Commercial_SM
New "Load.tyn202_x_2_411_abc41203-1_32" phases=1 bus1=41203.2 kV=7.19955785679 kW=1.541281 kvar=0.55802 class=2 yearly=Commercial_SM
New "Load.tyn202_x_2_411_abc41203-1_33" phases=1 bus1=41203.1 kV=7.19955785679 kW=0.071062 kvar=0.028842 class=1 yearly=Residential
New "Load.tyn202_x_2_411_abc41203-1_34" phases=1 bus1=41203.2 kV=7.19955785679 kW=0.073394 kvar=0.026572 class=1 yearly=Residential
New "Load.tyn202_x_2_411_abc41203-1_35" phases=1 bus1=41203.3 kV=7.19955785679 kW=0.072549 kvar=0.027609 class=1 yearly=Residential
New "Load.tyn202_x_2_411_abc41203-1_4" phases=1 bus1=41203.2 kV=7.19955785679 kW=4.340184 kvar=1.57136 class=2 yearly=Commercial_SM
New "Load.tyn202_x_2_411_abc41203-1_5" phases=1 bus1=41203.3 kV=7.19955785679 kW=4.290216 kvar=1.63264 class=2 yearly=Commercial_SM
New "Load.tyn202_x_2_411_abc41203-1_6" phases=1 bus1=41203.1 kV=7.19955785679 kW=0.635712 kvar=0.258019 class=2 yearly=Commercial_SM
New "Load.tyn202_x_2_411_abc41203-1_7" phases=1 bus1=41203.2 kV=7.19955785679 kW=0.656582 kvar=0.237715 class=2 yearly=Commercial_SM
New "Load.tyn202_x_2_411_abc41203-1_8" phases=1 bus1=41203.3 kV=7.19955785679 kW=0.649023 kvar=0.246985 class=2 yearly=Commercial_SM
New "Load.tyn202_x_2_411_abc41203-1_9" phases=1 bus1=41203.1 kV=7.19955785679 kW=8.734803 kvar=3.545232 class=2 yearly=Commercial_SM
New "Load.tyn202_x_2_084_c1151752-1_0" phases=1 bus1=1151752.3 kV=7.19955785679 kW=3.270604 kvar=1.244627 class=1 yearly=Residential
New "Load.tyn202_1189393elb-1_0" phases=1 bus1=1189393.3 kV=7.19955785679 kW=1.560792 kvar=0.593959 class=1 yearly=Residential
New "Load.tyn202_1189393elb-1_1" phases=1 bus1=1189393.3 kV=7.19955785679 kW=1.490203 kvar=0.567096 class=1 yearly=Residential
New "Load.tyn202_1189393elb-1_2" phases=1 bus1=1189393.3 kV=7.19955785679 kW=1.547066 kvar=0.588735 class=1 yearly=Residential
New "Load.tyn202_1189393elb-1_3" phases=1 bus1=1189393.3 kV=7.19955785679 kW=0.705886 kvar=0.268624 class=1 yearly=Residential
New "Load.tyn202_1189393elb-1_4" phases=1 bus1=1189393.3 kV=7.19955785679 kW=1.60589 kvar=0.611121 class=1 yearly=Residential
New "Load.tyn202_1189396elb-1_0" phases=1 bus1=1189396.3 kV=7.19955785679 kW=3.723547 kvar=1.416994 class=1 yearly=Residential
New "Load.tyn202_1189396elb-1_1" phases=1 bus1=1189396.3 kV=7.19955785679 kW=0.992162 kvar=0.377567 class=1 yearly=Residential
New "Load.tyn202_1189396elb-1_2" phases=1 bus1=1189396.3 kV=7.19955785679 kW=1.223535 kvar=0.465616 class=1 yearly=Residential
New "Load.tyn202_1189396elb-1_3" phases=1 bus1=1189396.3 kV=7.19955785679 kW=2.905896 kvar=1.105837 class=1 yearly=Residential
New "Load.tyn202_x_2_076_abc29641-1_0" phases=1 bus1=29641.2 kV=7.19955785679 kW=1.763448 kvar=0.638455 class=2 yearly=Commercial_SM
New "Load.tyn202_x_2_076_abc29641-1_1" phases=1 bus1=29641.2 kV=7.19955785679 kW=0.39871 kvar=0.144353 class=2 yearly=Commercial_SM
New "Load.tyn202_x_2_076_abc29641-1_2" phases=1 bus1=29641.2 kV=7.19955785679 kW=0.156707 kvar=0.056736 class=2 yearly=Commercial_SM
New "Load.tyn202_x_2_076_abc29641-1_3" phases=1 bus1=29641.2 kV=7.19955785679 kW=2.035205 kvar=0.736844 class=2 yearly=Commercial_SM
New "Load.tyn202_x_2_016_ac29657-1_0" phases=1 bus1=29657.1 kV=7.19955785679 kW=3.291876 kvar=1.336088 class=2 yearly=Commercial_SM
New "Load.tyn202_x_2_016_ac29657-1_1" phases=1 bus1=29657.3 kV=7.19955785679 kW=0.66667 kvar=0.253701 class=2 yearly=Commercial_SM
New "Load.tyn202_x_2_016_ac29657-1_2" phases=1 bus1=29657.1 kV=7.19955785679 kW=1.501894 kvar=0.60958 class=2 yearly=Commercial_SM
New "Load.tyn202_x_2_016_ac29657-1_3" phases=1 bus1=29657.1 kV=7.19955785679 kW=2.343109 kvar=0.951008 class=2 yearly=Commercial_SM
New "Load.tyn202_x_2_016_ac29657-1_4" phases=1 bus1=29657.1 kV=7.19955785679 kW=3.610693 kvar=1.465487 class=1 yearly=Residential
New "Load.tyn202_x_2_018_ac64745-1_0" phases=1 bus1=64745.3 kV=7.19955785679 kW=3.758841 kvar=1.430425 class=1 yearly=Residential
New "Load.tyn202_x_2_018_ac64745-1_1" phases=1 bus1=64745.3 kV=7.19955785679 kW=3.454918 kvar=1.314768 class=1 yearly=Residential
New "Load.tyn202_x_2_018_ac64745-1_2" phases=1 bus1=64745.3 kV=7.19955785679 kW=2.790209 kvar=1.061813 class=1 yearly=Residential
New "Load.tyn202_x_2_018_ac64745-1_3" phases=1 bus1=64745.3 kV=7.19955785679 kW=4.943161 kvar=1.881117 class=1 yearly=Residential
New "Load.tyn202_x_2_018_ac64745-1_4" phases=1 bus1=64745.3 kV=7.19955785679 kW=3.058838 kvar=1.164039 class=1 yearly=Residential
New "Load.tyn202_x_2_019_ac41220-1_0" phases=1 bus1=41220.3 kV=7.19955785679 kW=4.778454 kvar=1.818438 class=1 yearly=Residential
New "Load.tyn202_x_2_019_ac41220-1_1" phases=1 bus1=41220.3 kV=7.19955785679 kW=1.645106 kvar=0.626044 class=1 yearly=Residential
New "Load.tyn202_x_2_019_ac41220-1_2" phases=1 bus1=41220.3 kV=7.19955785679 kW=2.535306 kvar=0.96481 class=1 yearly=Residential
New "Load.tyn202_x_2_019_ac41220-1_3" phases=1 bus1=41220.3 kV=7.19955785679 kW=3.947078 kvar=1.502058 class=1 yearly=Residential
New "Load.tyn202_x_2_019_ac41220-1_4" phases=1 bus1=41220.3 kV=7.19955785679 kW=3.133348 kvar=1.192394 class=1 yearly=Residential
New "Load.tyn202_x_2_020_a41221-1_0" phases=1 bus1=41221.1 kV=7.19955785679 kW=2.750272 kvar=1.116265 class=1 yearly=Residential
New "Load.tyn202_x_2_020_a41221-1_1" phases=1 bus1=41221.1 kV=7.19955785679 kW=7.150324 kvar=2.902133 class=1 yearly=Residential
New "Load.tyn202_x_2_020_a41221-1_2" phases=1 bus1=41221.1 kV=7.19955785679 kW=3.032598 kvar=1.230854 class=1 yearly=Residential
New "Load.tyn202_x_2_020_a41221-1_3" phases=1 bus1=41221.1 kV=7.19955785679 kW=1.995484 kvar=0.809916 class=1 yearly=Residential
New "Load.tyn202_x_2_020_a41221-1_4" phases=1 bus1=41221.1 kV=7.19955785679 kW=3.606851 kvar=1.463928 class=1 yearly=Residential
New "Load.tyn202_x_2_021_a64748-1_0" phases=1 bus1=64748.1 kV=7.19955785679 kW=3.937191 kvar=1.598005 class=1 yearly=Residential
...
